!- Windows Line endings 

Version,
    24.2;                     !- Version Identifier

SimulationControl,
    Yes,                      !- Do Zone Sizing Calculation
    Yes,                      !- Do System Sizing Calculation
    Yes,                      !- Do Plant Sizing Calculation
    No,                       !- Run Simulation for Sizing Periods
    Yes,                      !- Run Simulation for Weather File Run Periods
    No,                       !- Do HVAC Sizing Simulation for Sizing Periods
    1;                        !- Maximum Number of HVAC Sizing Simulation Passes

Building,
    Hospital,                 !- Name
    -90,                      !- North Axis
    City,                     !- Terrain
    0.04,                     !- Loads Convergence Tolerance Value
    0.2,                      !- Temperature Convergence Tolerance Value
    FullInteriorAndExterior,    !- Solar Distribution
    25,                       !- Maximum Number of Warmup Days
    6;                        !- Minimum Number of Warmup Days

ShadowCalculation,
    PolygonClipping,          !- Shading Calculation Method
    Periodic,                 !- Shading Calculation Update Frequency Method
    30;                       !- Shading Calculation Update Frequency

SurfaceConvectionAlgorithm:Inside,
    TARP;                     !- Algorithm

SurfaceConvectionAlgorithm:Outside,
    TARP;                     !- Algorithm

HeatBalanceAlgorithm,
    ConductionTransferFunction;    !- Algorithm

Timestep,
    6;                        !- Number of Timesteps per Hour

ConvergenceLimits,
    1,                        !- Minimum System Timestep
    20;                       !- Maximum HVAC Iterations

Site:Location,
    New.York-John.F.Kennedy.Intl.AP_NY_USA WMO=744860,    !- Name
    40.66,                    !- Latitude
    -73.8,                    !- Longitude
    -5,                       !- Time Zone
    7;                        !- Elevation

SizingPeriod:DesignDay,
    New.York-John.F.Kennedy.Intl.AP_NY_USA Ann Htg 99.6% Condns DB,    !- Name
    1,                        !- Month
    21,                       !- Day of Month
    WinterDesignDay,          !- Day Type
    -10.7,                    !- Maximum DryBulb Temperature
    0,                        !- Daily DryBulb Temperature Range
    DefaultMultipliers,       !- DryBulb Temperature Range Modifier Type
    ,                         !- DryBulb Temperature Range Modifier Day Schedule Name
    Wetbulb,                  !- Humidity Condition Type
    -10.7,                    !- Wetbulb or DewPoint at Maximum DryBulb
    ,                         !- Humidity Condition Day Schedule Name
    ,                         !- Humidity Ratio at Maximum DryBulb
    ,                         !- Enthalpy at Maximum DryBulb
    ,                         !- Daily WetBulb Temperature Range
    101241,                   !- Barometric Pressure
    7.5,                      !- Wind Speed
    320,                      !- Wind Direction
    No,                       !- Rain Indicator
    No,                       !- Snow Indicator
    No,                       !- Daylight Saving Time Indicator
    ASHRAEClearSky,           !- Solar Model Indicator
    ,                         !- Beam Solar Day Schedule Name
    ,                         !- Diffuse Solar Day Schedule Name
    ,                         !- ASHRAE Clear Sky Optical Depth for Beam Irradiance taub
    ,                         !- ASHRAE Clear Sky Optical Depth for Diffuse Irradiance taud
    0;                        !- Sky Clearness

SizingPeriod:DesignDay,
    New.York-John.F.Kennedy.Intl.AP_NY_USA Ann Clg .4% Condns DB=>MWB,    !- Name
    7,                        !- Month
    21,                       !- Day of Month
    SummerDesignDay,          !- Day Type
    32.1,                     !- Maximum DryBulb Temperature
    7.4,                      !- Daily DryBulb Temperature Range
    DefaultMultipliers,       !- DryBulb Temperature Range Modifier Type
    ,                         !- DryBulb Temperature Range Modifier Day Schedule Name
    Wetbulb,                  !- Humidity Condition Type
    23.1,                     !- Wetbulb or DewPoint at Maximum DryBulb
    ,                         !- Humidity Condition Day Schedule Name
    ,                         !- Humidity Ratio at Maximum DryBulb
    ,                         !- Enthalpy at Maximum DryBulb
    ,                         !- Daily WetBulb Temperature Range
    101241,                   !- Barometric Pressure
    5.6,                      !- Wind Speed
    230,                      !- Wind Direction
    No,                       !- Rain Indicator
    No,                       !- Snow Indicator
    No,                       !- Daylight Saving Time Indicator
    ASHRAETau,                !- Solar Model Indicator
    ,                         !- Beam Solar Day Schedule Name
    ,                         !- Diffuse Solar Day Schedule Name
    0.541,                    !- ASHRAE Clear Sky Optical Depth for Beam Irradiance taub
    1.8;                      !- ASHRAE Clear Sky Optical Depth for Diffuse Irradiance taud

RunPeriod,
    RUNPERIOD 1,              !- Name
    1,                        !- Begin Month
    1,                        !- Begin Day of Month
    ,                         !- Begin Year
    12,                       !- End Month
    31,                       !- End Day of Month
    ,                         !- End Year
    Sunday,                   !- Day of Week for Start Day
    No,                       !- Use Weather File Holidays and Special Days
    No,                       !- Use Weather File Daylight Saving Period
    No,                       !- Apply Weekend Holiday Rule
    Yes,                      !- Use Weather File Rain Indicators
    Yes;                      !- Use Weather File Snow Indicators

RunPeriodControl:SpecialDays,
    New Years Day,            !- Name
    January 1,                !- Start Date
    1,                        !- Duration
    Holiday;                  !- Special Day Type

RunPeriodControl:SpecialDays,
    Veterans Day,             !- Name
    November 11,              !- Start Date
    1,                        !- Duration
    Holiday;                  !- Special Day Type

RunPeriodControl:SpecialDays,
    Christmas,                !- Name
    December 25,              !- Start Date
    1,                        !- Duration
    Holiday;                  !- Special Day Type

RunPeriodControl:SpecialDays,
    Independence Day,         !- Name
    July 4,                   !- Start Date
    1,                        !- Duration
    Holiday;                  !- Special Day Type

RunPeriodControl:SpecialDays,
    MLK Day,                  !- Name
    3rd Monday in January,    !- Start Date
    1,                        !- Duration
    Holiday;                  !- Special Day Type

RunPeriodControl:SpecialDays,
    Presidents Day,           !- Name
    3rd Monday in February,    !- Start Date
    1,                        !- Duration
    Holiday;                  !- Special Day Type

RunPeriodControl:SpecialDays,
    Memorial Day,             !- Name
    Last Monday in May,       !- Start Date
    1,                        !- Duration
    Holiday;                  !- Special Day Type

RunPeriodControl:SpecialDays,
    Labor Day,                !- Name
    1st Monday in September,    !- Start Date
    1,                        !- Duration
    Holiday;                  !- Special Day Type

RunPeriodControl:SpecialDays,
    Columbus Day,             !- Name
    2nd Monday in October,    !- Start Date
    1,                        !- Duration
    Holiday;                  !- Special Day Type

RunPeriodControl:SpecialDays,
    Thanksgiving,             !- Name
    4th Thursday in November,    !- Start Date
    1,                        !- Duration
    Holiday;                  !- Special Day Type

RunPeriodControl:DaylightSavingTime,
    2nd Sunday in March,      !- Start Date
    1st Sunday in November;    !- End Date

Site:GroundTemperature:FCfactorMethod,
    14,                       !- January Ground Temperature
    7.3,                      !- February Ground Temperature
    3.3,                      !- March Ground Temperature
    1.2,                      !- April Ground Temperature
    -0.2,                     !- May Ground Temperature
    5.6,                      !- June Ground Temperature
    10.9,                     !- July Ground Temperature
    16.1,                     !- August Ground Temperature
    21.7,                     !- September Ground Temperature
    25,                       !- October Ground Temperature
    24.8,                     !- November Ground Temperature
    19.9;                     !- December Ground Temperature

Site:WaterMainsTemperature,
    Correlation,              !- Calculation Method
    ,                         !- Temperature Schedule Name
    12.4666666666667,         !- Annual Average Outdoor Air Temperature
    25.2;                     !- Maximum Difference In Monthly Average Outdoor Air Temperatures

ScheduleTypeLimits,
    Any Number;               !- Name

ScheduleTypeLimits,
    Fraction,                 !- Name
    0,                        !- Lower Limit Value
    1,                        !- Upper Limit Value
    Continuous;               !- Numeric Type

ScheduleTypeLimits,
    Temperature,              !- Name
    -60,                      !- Lower Limit Value
    200,                      !- Upper Limit Value
    Continuous;               !- Numeric Type

ScheduleTypeLimits,
    On/Off,                   !- Name
    0,                        !- Lower Limit Value
    1,                        !- Upper Limit Value
    Discrete;                 !- Numeric Type

ScheduleTypeLimits,
    Control Type,             !- Name
    0,                        !- Lower Limit Value
    4,                        !- Upper Limit Value
    Discrete;                 !- Numeric Type

ScheduleTypeLimits,
    Humidity,                 !- Name
    10,                       !- Lower Limit Value
    90,                       !- Upper Limit Value
    Continuous;               !- Numeric Type

ScheduleTypeLimits,
    Number;                   !- Name

Schedule:Compact,
    PV_SCH,                   !- Name
    Fraction,                 !- Schedule Type Limits Name
    Through: 12/31,           !- Field 1
    For: AllDays,             !- Field 2
    Until: 24:00,             !- Field 3
    1;                        !- Field 4

Schedule:Compact,
    Hours_of_operation,       !- Name
    on/off,                   !- Schedule Type Limits Name
    Through: 12/31,           !- Field 1
    For: AllDays,             !- Field 2
    Until: 24:00,             !- Field 3
    1.0;                      !- Field 4

Schedule:Compact,
    Exterior_Lgt_ALWAYS_ON,    !- Name
    Fraction,                 !- Schedule Type Limits Name
    Through: 12/31,           !- Field 1
    For: AllDays,             !- Field 2
    Until: 24:00,             !- Field 3
    1;                        !- Field 4

Schedule:Compact,
    ALWAYS_ON,                !- Name
    Fraction,                 !- Schedule Type Limits Name
    Through: 12/31,           !- Field 1
    For: AllDays,             !- Field 2
    Until: 24:00,             !- Field 3
    1.0;                      !- Field 4

Schedule:Compact,
    ALWAYS_OFF,               !- Name
    Fraction,                 !- Schedule Type Limits Name
    Through: 12/31,           !- Field 1
    For: AllDays,             !- Field 2
    Until: 24:00,             !- Field 3
    0.0;                      !- Field 4

Schedule:Compact,
    HVACOperationSchd,        !- Name
    on/off,                   !- Schedule Type Limits Name
    Through: 12/31,           !- Field 1
    For: AllDays,             !- Field 2
    Until: 24:00,             !- Field 3
    1.0;                      !- Field 4

SCHEDULE:COMPACT,
    ltg_sch14_dining,         !- Name
    Fraction,                 !- Schedule Type Limits Name
    Through: 12/31,           !- Field 1
    For: SummerDesignDay,     !- Field 2
    Until: 24:00,             !- Field 3
    1,                        !- Field 4
    For: WinterDesignDay,     !- Field 5
    Until: 24:00,             !- Field 6
    0,                        !- Field 7
    For: Weekdays,            !- Field 8
    Until: 8:00,              !- Field 9
    0.325,                    !- Field 10
    Until: 16:00,             !- Field 11
    0.585,                    !- Field 12
    Until: 24:00,             !- Field 13
    0.325,                    !- Field 14
    For: Saturday,            !- Field 15
    Until: 8:00,              !- Field 16
    0.325,                    !- Field 17
    Until: 18:00,             !- Field 18
    0.52,                     !- Field 19
    Until: 24:00,             !- Field 20
    0.325,                    !- Field 21
    For: AllOtherDays,        !- Field 22
    Until: 8:00,              !- Field 23
    0.325,                    !- Field 24
    Until: 16:00,             !- Field 25
    0.455,                    !- Field 26
    Until: 24:00,             !- Field 27
    0.325;                    !- Field 28

SCHEDULE:COMPACT,
    ltg_sch7_ic,              !- Name
    Fraction,                 !- Schedule Type Limits Name
    Through: 12/31,           !- Field 1
    For: SummerDesignDay,     !- Field 2
    Until: 24:00,             !- Field 3
    1,                        !- Field 4
    For: WinterDesignDay,     !- Field 5
    Until: 24:00,             !- Field 6
    0,                        !- Field 7
    For: Weekdays,            !- Field 8
    Until: 8:00,              !- Field 9
    0.45,                     !- Field 10
    Until: 16:00,             !- Field 11
    0.81,                     !- Field 12
    Until: 24:00,             !- Field 13
    0.45,                     !- Field 14
    For: Saturday,            !- Field 15
    Until: 8:00,              !- Field 16
    0.45,                     !- Field 17
    Until: 18:00,             !- Field 18
    0.72,                     !- Field 19
    Until: 24:00,             !- Field 20
    0.45,                     !- Field 21
    For: AllOtherDays,        !- Field 22
    Until: 8:00,              !- Field 23
    0.45,                     !- Field 24
    Until: 16:00,             !- Field 25
    0.63,                     !- Field 26
    Until: 24:00,             !- Field 27
    0.45;                     !- Field 28

SCHEDULE:COMPACT,
    ltg_sch3_record,          !- Name
    Fraction,                 !- Schedule Type Limits Name
    Through: 12/31,           !- Field 1
    For: SummerDesignDay,     !- Field 2
    Until: 24:00,             !- Field 3
    1,                        !- Field 4
    For: WinterDesignDay,     !- Field 5
    Until: 24:00,             !- Field 6
    0,                        !- Field 7
    For: Weekdays,            !- Field 8
    Until: 7:00,              !- Field 9
    0.07563,                  !- Field 10
    Until: 8:00,              !- Field 11
    0.37813,                  !- Field 12
    Until: 16:00,             !- Field 13
    0.68063,                  !- Field 14
    Until: 23:00,             !- Field 15
    0.22688,                  !- Field 16
    Until: 24:00,             !- Field 17
    0.07563,                  !- Field 18
    For: Saturday,            !- Field 19
    Until: 7:00,              !- Field 20
    0.07563,                  !- Field 21
    Until: 8:00,              !- Field 22
    0.15125,                  !- Field 23
    Until: 18:00,             !- Field 24
    0.3025,                   !- Field 25
    Until: 24:00,             !- Field 26
    0.07563,                  !- Field 27
    For: AllOtherDays,        !- Field 28
    Until: 8:00,              !- Field 29
    0.03781,                  !- Field 30
    Until: 16:00,             !- Field 31
    0.07563,                  !- Field 32
    Until: 24:00,             !- Field 33
    0.03781;                  !- Field 34

SCHEDULE:COMPACT,
    ltg_sch0_basement,        !- Name
    Fraction,                 !- Schedule Type Limits Name
    Through: 12/31,           !- Field 1
    For: SummerDesignDay,     !- Field 2
    Until: 24:00,             !- Field 3
    1,                        !- Field 4
    For: WinterDesignDay,     !- Field 5
    Until: 24:00,             !- Field 6
    0,                        !- Field 7
    For: Weekdays,            !- Field 8
    Until: 7:00,              !- Field 9
    0.073233323,              !- Field 10
    Until: 8:00,              !- Field 11
    0.366166615,              !- Field 12
    Until: 16:00,             !- Field 13
    0.659099907,              !- Field 14
    Until: 23:00,             !- Field 15
    0.219699969,              !- Field 16
    Until: 24:00,             !- Field 17
    0.073233323,              !- Field 18
    For: Saturday,            !- Field 19
    Until: 7:00,              !- Field 20
    0.073233323,              !- Field 21
    Until: 8:00,              !- Field 22
    0.146466646,              !- Field 23
    Until: 18:00,             !- Field 24
    0.292933292,              !- Field 25
    Until: 24:00,             !- Field 26
    0.073233323,              !- Field 27
    For: AllOtherDays,        !- Field 28
    Until: 8:00,              !- Field 29
    0.0366166615,             !- Field 30
    Until: 16:00,             !- Field 31
    0.073233323,              !- Field 32
    Until: 24:00,             !- Field 33
    0.0366166615;             !- Field 34

SCHEDULE:COMPACT,
    ltg_sch10_patient_room,    !- Name
    Fraction,                 !- Schedule Type Limits Name
    Through: 12/31,           !- Field 1
    For: SummerDesignDay,     !- Field 2
    Until: 24:00,             !- Field 3
    1,                        !- Field 4
    For: WinterDesignDay,     !- Field 5
    Until: 24:00,             !- Field 6
    0,                        !- Field 7
    For: Weekdays,            !- Field 8
    Until: 8:00,              !- Field 9
    0.45,                     !- Field 10
    Until: 16:00,             !- Field 11
    0.81,                     !- Field 12
    Until: 24:00,             !- Field 13
    0.45,                     !- Field 14
    For: Saturday,            !- Field 15
    Until: 8:00,              !- Field 16
    0.45,                     !- Field 17
    Until: 18:00,             !- Field 18
    0.72,                     !- Field 19
    Until: 24:00,             !- Field 20
    0.45,                     !- Field 21
    For: AllOtherDays,        !- Field 22
    Until: 8:00,              !- Field 23
    0.45,                     !- Field 24
    Until: 16:00,             !- Field 25
    0.63,                     !- Field 26
    Until: 24:00,             !- Field 27
    0.45;                     !- Field 28

SCHEDULE:COMPACT,
    ltg_sch4_corridor,        !- Name
    Fraction,                 !- Schedule Type Limits Name
    Through: 12/31,           !- Field 1
    For: SummerDesignDay,     !- Field 2
    Until: 24:00,             !- Field 3
    1,                        !- Field 4
    For: WinterDesignDay,     !- Field 5
    Until: 24:00,             !- Field 6
    0,                        !- Field 7
    For: Weekdays,            !- Field 8
    Until: 8:00,              !- Field 9
    0.3608307885,             !- Field 10
    Until: 16:00,             !- Field 11
    0.6494985055,             !- Field 12
    Until: 24:00,             !- Field 13
    0.3608307885,             !- Field 14
    For: Saturday,            !- Field 15
    Until: 8:00,              !- Field 16
    0.3608307885,             !- Field 17
    Until: 18:00,             !- Field 18
    0.577335434,              !- Field 19
    Until: 24:00,             !- Field 20
    0.3608307885,             !- Field 21
    For: AllOtherDays,        !- Field 22
    Until: 8:00,              !- Field 23
    0.3608307885,             !- Field 24
    Until: 16:00,             !- Field 25
    0.505164647,              !- Field 26
    Until: 24:00,             !- Field 27
    0.3608307885;             !- Field 28

SCHEDULE:COMPACT,
    ltg_sch11_physical_therapy,    !- Name
    Fraction,                 !- Schedule Type Limits Name
    Through: 12/31,           !- Field 1
    For: SummerDesignDay,     !- Field 2
    Until: 24:00,             !- Field 3
    1,                        !- Field 4
    For: WinterDesignDay,     !- Field 5
    Until: 24:00,             !- Field 6
    0,                        !- Field 7
    For: Weekdays,            !- Field 8
    Until: 7:00,              !- Field 9
    0.09,                     !- Field 10
    Until: 8:00,              !- Field 11
    0.45,                     !- Field 12
    Until: 16:00,             !- Field 13
    0.81,                     !- Field 14
    Until: 23:00,             !- Field 15
    0.27,                     !- Field 16
    Until: 24:00,             !- Field 17
    0.09,                     !- Field 18
    For: Saturday,            !- Field 19
    Until: 7:00,              !- Field 20
    0.09,                     !- Field 21
    Until: 8:00,              !- Field 22
    0.18,                     !- Field 23
    Until: 18:00,             !- Field 24
    0.36,                     !- Field 25
    Until: 24:00,             !- Field 26
    0.09,                     !- Field 27
    For: AllOtherDays,        !- Field 28
    Until: 8:00,              !- Field 29
    0.045,                    !- Field 30
    Until: 16:00,             !- Field 31
    0.09,                     !- Field 32
    Until: 24:00,             !- Field 33
    0.045;                    !- Field 34

SCHEDULE:COMPACT,
    ltg_sch13_radiology,      !- Name
    Fraction,                 !- Schedule Type Limits Name
    Through: 12/31,           !- Field 1
    For: SummerDesignDay,     !- Field 2
    Until: 24:00,             !- Field 3
    1,                        !- Field 4
    For: WinterDesignDay,     !- Field 5
    Until: 24:00,             !- Field 6
    0,                        !- Field 7
    For: Weekdays,            !- Field 8
    Until: 7:00,              !- Field 9
    0.09,                     !- Field 10
    Until: 8:00,              !- Field 11
    0.45,                     !- Field 12
    Until: 16:00,             !- Field 13
    0.81,                     !- Field 14
    Until: 23:00,             !- Field 15
    0.27,                     !- Field 16
    Until: 24:00,             !- Field 17
    0.09,                     !- Field 18
    For: Saturday,            !- Field 19
    Until: 7:00,              !- Field 20
    0.09,                     !- Field 21
    Until: 8:00,              !- Field 22
    0.18,                     !- Field 23
    Until: 18:00,             !- Field 24
    0.36,                     !- Field 25
    Until: 24:00,             !- Field 26
    0.09,                     !- Field 27
    For: AllOtherDays,        !- Field 28
    Until: 8:00,              !- Field 29
    0.045,                    !- Field 30
    Until: 16:00,             !- Field 31
    0.09,                     !- Field 32
    Until: 24:00,             !- Field 33
    0.045;                    !- Field 34

SCHEDULE:COMPACT,
    ltg_sch15_kitchen,        !- Name
    Fraction,                 !- Schedule Type Limits Name
    Through: 12/31,           !- Field 1
    For: SummerDesignDay,     !- Field 2
    Until: 24:00,             !- Field 3
    1,                        !- Field 4
    For: WinterDesignDay,     !- Field 5
    Until: 24:00,             !- Field 6
    0,                        !- Field 7
    For: Weekdays,            !- Field 8
    Until: 8:00,              !- Field 9
    0.35,                     !- Field 10
    Until: 16:00,             !- Field 11
    0.63,                     !- Field 12
    Until: 24:00,             !- Field 13
    0.35,                     !- Field 14
    For: Saturday,            !- Field 15
    Until: 8:00,              !- Field 16
    0.35,                     !- Field 17
    Until: 18:00,             !- Field 18
    0.56,                     !- Field 19
    Until: 24:00,             !- Field 20
    0.35,                     !- Field 21
    For: AllOtherDays,        !- Field 22
    Until: 8:00,              !- Field 23
    0.35,                     !- Field 24
    Until: 16:00,             !- Field 25
    0.49,                     !- Field 26
    Until: 24:00,             !- Field 27
    0.35;                     !- Field 28

SCHEDULE:COMPACT,
    ltg_sch_office1_flr_5,    !- Name
    Fraction,                 !- Schedule Type Limits Name
    Through: 12/31,           !- Field 1
    For: SummerDesignDay,     !- Field 2
    Until: 24:00,             !- Field 3
    1,                        !- Field 4
    For: WinterDesignDay,     !- Field 5
    Until: 24:00,             !- Field 6
    0,                        !- Field 7
    For: Weekdays,            !- Field 8
    Until: 7:00,              !- Field 9
    0.06531,                  !- Field 10
    Until: 8:00,              !- Field 11
    0.32656,                  !- Field 12
    Until: 16:00,             !- Field 13
    0.58781,                  !- Field 14
    Until: 23:00,             !- Field 15
    0.19594,                  !- Field 16
    Until: 24:00,             !- Field 17
    0.06531,                  !- Field 18
    For: Saturday,            !- Field 19
    Until: 7:00,              !- Field 20
    0.06531,                  !- Field 21
    Until: 8:00,              !- Field 22
    0.13062,                  !- Field 23
    Until: 18:00,             !- Field 24
    0.26125,                  !- Field 25
    Until: 24:00,             !- Field 26
    0.06531,                  !- Field 27
    For: AllOtherDays,        !- Field 28
    Until: 8:00,              !- Field 29
    0.03266,                  !- Field 30
    Until: 16:00,             !- Field 31
    0.06531,                  !- Field 32
    Until: 24:00,             !- Field 33
    0.03266;                  !- Field 34

SCHEDULE:COMPACT,
    ltg_sch6_or,              !- Name
    Fraction,                 !- Schedule Type Limits Name
    Through: 12/31,           !- Field 1
    For: SummerDesignDay,     !- Field 2
    Until: 24:00,             !- Field 3
    1,                        !- Field 4
    For: WinterDesignDay,     !- Field 5
    Until: 24:00,             !- Field 6
    0,                        !- Field 7
    For: Weekdays,            !- Field 8
    Until: 7:00,              !- Field 9
    0.09,                     !- Field 10
    Until: 8:00,              !- Field 11
    0.45,                     !- Field 12
    Until: 16:00,             !- Field 13
    0.81,                     !- Field 14
    Until: 23:00,             !- Field 15
    0.27,                     !- Field 16
    Until: 24:00,             !- Field 17
    0.09,                     !- Field 18
    For: Saturday,            !- Field 19
    Until: 7:00,              !- Field 20
    0.09,                     !- Field 21
    Until: 8:00,              !- Field 22
    0.18,                     !- Field 23
    Until: 18:00,             !- Field 24
    0.36,                     !- Field 25
    Until: 24:00,             !- Field 26
    0.09,                     !- Field 27
    For: AllOtherDays,        !- Field 28
    Until: 8:00,              !- Field 29
    0.045,                    !- Field 30
    Until: 16:00,             !- Field 31
    0.09,                     !- Field 32
    Until: 24:00,             !- Field 33
    0.045;                    !- Field 34

SCHEDULE:COMPACT,
    ltg_sch1_office,          !- Name
    Fraction,                 !- Schedule Type Limits Name
    Through: 12/31,           !- Field 1
    For: SummerDesignDay,     !- Field 2
    Until: 24:00,             !- Field 3
    1,                        !- Field 4
    For: WinterDesignDay,     !- Field 5
    Until: 24:00,             !- Field 6
    0,                        !- Field 7
    For: Weekdays,            !- Field 8
    Until: 7:00,              !- Field 9
    0.0625,                   !- Field 10
    Until: 8:00,              !- Field 11
    0.3125,                   !- Field 12
    Until: 16:00,             !- Field 13
    0.5625,                   !- Field 14
    Until: 23:00,             !- Field 15
    0.1875,                   !- Field 16
    Until: 24:00,             !- Field 17
    0.0625,                   !- Field 18
    For: Saturday,            !- Field 19
    Until: 7:00,              !- Field 20
    0.0625,                   !- Field 21
    Until: 8:00,              !- Field 22
    0.125,                    !- Field 23
    Until: 18:00,             !- Field 24
    0.25,                     !- Field 25
    Until: 24:00,             !- Field 26
    0.0625,                   !- Field 27
    For: AllOtherDays,        !- Field 28
    Until: 8:00,              !- Field 29
    0.03125,                  !- Field 30
    Until: 16:00,             !- Field 31
    0.0625,                   !- Field 32
    Until: 24:00,             !- Field 33
    0.03125;                  !- Field 34

SCHEDULE:COMPACT,
    ltg_sch9_nursestn_lobby2,    !- Name
    Fraction,                 !- Schedule Type Limits Name
    Through: 12/31,           !- Field 1
    For: SummerDesignDay,     !- Field 2
    Until: 24:00,             !- Field 3
    1,                        !- Field 4
    For: WinterDesignDay,     !- Field 5
    Until: 24:00,             !- Field 6
    0,                        !- Field 7
    For: Weekdays,            !- Field 8
    Until: 8:00,              !- Field 9
    0.408,                    !- Field 10
    Until: 16:00,             !- Field 11
    0.7344,                   !- Field 12
    Until: 24:00,             !- Field 13
    0.408,                    !- Field 14
    For: Saturday,            !- Field 15
    Until: 8:00,              !- Field 16
    0.408,                    !- Field 17
    Until: 18:00,             !- Field 18