!- Windows Line endings 

Version,
    24.2;                     !- Version Identifier

SimulationControl,
    Yes,                      !- Do Zone Sizing Calculation
    Yes,                      !- Do System Sizing Calculation
    Yes,                      !- Do Plant Sizing Calculation
    No,                       !- Run Simulation for Sizing Periods
    Yes,                      !- Run Simulation for Weather File Run Periods
    No,                       !- Do HVAC Sizing Simulation for Sizing Periods
    1;                        !- Maximum Number of HVAC Sizing Simulation Passes

Building,
    OfficeMedium,             !- Name
    0,                        !- North Axis
    City,                     !- Terrain
    0.04,                     !- Loads Convergence Tolerance Value
    0.2,                      !- Temperature Convergence Tolerance Value
    FullInteriorAndExterior,    !- Solar Distribution
    25,                       !- Maximum Number of Warmup Days
    6;                        !- Minimum Number of Warmup Days

ShadowCalculation,
    PolygonClipping,          !- Shading Calculation Method
    Periodic,                 !- Shading Calculation Update Frequency Method
    30;                       !- Shading Calculation Update Frequency

SurfaceConvectionAlgorithm:Inside,
    TARP;                     !- Algorithm

SurfaceConvectionAlgorithm:Outside,
    TARP;                     !- Algorithm

HeatBalanceAlgorithm,
    ConductionTransferFunction;    !- Algorithm

Timestep,
    6;                        !- Number of Timesteps per Hour

ConvergenceLimits,
    1,                        !- Minimum System Timestep
    20;                       !- Maximum HVAC Iterations

Site:Location,
    New.York-John.F.Kennedy.Intl.AP_NY_USA WMO=744860,    !- Name
    40.66,                    !- Latitude
    -73.8,                    !- Longitude
    -5,                       !- Time Zone
    7;                        !- Elevation

SizingPeriod:DesignDay,
    New.York-John.F.Kennedy.Intl.AP_NY_USA Ann Htg 99.6% Condns DB,    !- Name
    1,                        !- Month
    21,                       !- Day of Month
    WinterDesignDay,          !- Day Type
    -10.7,                    !- Maximum DryBulb Temperature
    0,                        !- Daily DryBulb Temperature Range
    DefaultMultipliers,       !- DryBulb Temperature Range Modifier Type
    ,                         !- DryBulb Temperature Range Modifier Day Schedule Name
    Wetbulb,                  !- Humidity Condition Type
    -10.7,                    !- Wetbulb or DewPoint at Maximum DryBulb
    ,                         !- Humidity Condition Day Schedule Name
    ,                         !- Humidity Ratio at Maximum DryBulb
    ,                         !- Enthalpy at Maximum DryBulb
    ,                         !- Daily WetBulb Temperature Range
    101241,                   !- Barometric Pressure
    7.5,                      !- Wind Speed
    320,                      !- Wind Direction
    No,                       !- Rain Indicator
    No,                       !- Snow Indicator
    No,                       !- Daylight Saving Time Indicator
    ASHRAEClearSky,           !- Solar Model Indicator
    ,                         !- Beam Solar Day Schedule Name
    ,                         !- Diffuse Solar Day Schedule Name
    ,                         !- ASHRAE Clear Sky Optical Depth for Beam Irradiance taub
    ,                         !- ASHRAE Clear Sky Optical Depth for Diffuse Irradiance taud
    0;                        !- Sky Clearness

SizingPeriod:DesignDay,
    New.York-John.F.Kennedy.Intl.AP_NY_USA Ann Clg .4% Condns DB=>MWB,    !- Name
    7,                        !- Month
    21,                       !- Day of Month
    SummerDesignDay,          !- Day Type
    32.1,                     !- Maximum DryBulb Temperature
    7.4,                      !- Daily DryBulb Temperature Range
    DefaultMultipliers,       !- DryBulb Temperature Range Modifier Type
    ,                         !- DryBulb Temperature Range Modifier Day Schedule Name
    Wetbulb,                  !- Humidity Condition Type
    23.1,                     !- Wetbulb or DewPoint at Maximum DryBulb
    ,                         !- Humidity Condition Day Schedule Name
    ,                         !- Humidity Ratio at Maximum DryBulb
    ,                         !- Enthalpy at Maximum DryBulb
    ,                         !- Daily WetBulb Temperature Range
    101241,                   !- Barometric Pressure
    5.6,                      !- Wind Speed
    230,                      !- Wind Direction
    No,                       !- Rain Indicator
    No,                       !- Snow Indicator
    No,                       !- Daylight Saving Time Indicator
    ASHRAETau,                !- Solar Model Indicator
    ,                         !- Beam Solar Day Schedule Name
    ,                         !- Diffuse Solar Day Schedule Name
    0.541,                    !- ASHRAE Clear Sky Optical Depth for Beam Irradiance taub
    1.8;                      !- ASHRAE Clear Sky Optical Depth for Diffuse Irradiance taud

RunPeriod,
    RUNPERIOD 1,              !- Name
    1,                        !- Begin Month
    1,                        !- Begin Day of Month
    ,                         !- Begin Year
    12,                       !- End Month
    31,                       !- End Day of Month
    ,                         !- End Year
    Sunday,                   !- Day of Week for Start Day
    No,                       !- Use Weather File Holidays and Special Days
    No,                       !- Use Weather File Daylight Saving Period
    No,                       !- Apply Weekend Holiday Rule
    Yes,                      !- Use Weather File Rain Indicators
    Yes;                      !- Use Weather File Snow Indicators

RunPeriodControl:SpecialDays,
    New Years Day,            !- Name
    January 1,                !- Start Date
    1,                        !- Duration
    Holiday;                  !- Special Day Type

RunPeriodControl:SpecialDays,
    Veterans Day,             !- Name
    November 11,              !- Start Date
    1,                        !- Duration
    Holiday;                  !- Special Day Type

RunPeriodControl:SpecialDays,
    Christmas,                !- Name
    December 25,              !- Start Date
    1,                        !- Duration
    Holiday;                  !- Special Day Type

RunPeriodControl:SpecialDays,
    Independence Day,         !- Name
    July 4,                   !- Start Date
    1,                        !- Duration
    Holiday;                  !- Special Day Type

RunPeriodControl:SpecialDays,
    MLK Day,                  !- Name
    3rd Monday in January,    !- Start Date
    1,                        !- Duration
    Holiday;                  !- Special Day Type

RunPeriodControl:SpecialDays,
    Presidents Day,           !- Name
    3rd Monday in February,    !- Start Date
    1,                        !- Duration
    Holiday;                  !- Special Day Type

RunPeriodControl:SpecialDays,
    Memorial Day,             !- Name
    Last Monday in May,       !- Start Date
    1,                        !- Duration
    Holiday;                  !- Special Day Type

RunPeriodControl:SpecialDays,
    Labor Day,                !- Name
    1st Monday in September,    !- Start Date
    1,                        !- Duration
    Holiday;                  !- Special Day Type

RunPeriodControl:SpecialDays,
    Columbus Day,             !- Name
    2nd Monday in October,    !- Start Date
    1,                        !- Duration
    Holiday;                  !- Special Day Type

RunPeriodControl:SpecialDays,
    Thanksgiving,             !- Name
    4th Thursday in November,    !- Start Date
    1,                        !- Duration
    Holiday;                  !- Special Day Type

RunPeriodControl:DaylightSavingTime,
    2nd Sunday in March,      !- Start Date
    1st Sunday in November;    !- End Date

Site:GroundTemperature:FCfactorMethod,
    14,                       !- January Ground Temperature
    7.3,                      !- February Ground Temperature
    3.3,                      !- March Ground Temperature
    1.2,                      !- April Ground Temperature
    -0.2,                     !- May Ground Temperature
    5.6,                      !- June Ground Temperature
    10.9,                     !- July Ground Temperature
    16.1,                     !- August Ground Temperature
    21.7,                     !- September Ground Temperature
    25,                       !- October Ground Temperature
    24.8,                     !- November Ground Temperature
    19.9;                     !- December Ground Temperature

Site:WaterMainsTemperature,
    Correlation,              !- Calculation Method
    ,                         !- Temperature Schedule Name
    12.4666666666667,         !- Annual Average Outdoor Air Temperature
    25.2;                     !- Maximum Difference In Monthly Average Outdoor Air Temperatures

ScheduleTypeLimits,
    Any Number;               !- Name

ScheduleTypeLimits,
    Fraction,                 !- Name
    0,                        !- Lower Limit Value
    1,                        !- Upper Limit Value
    Continuous;               !- Numeric Type

ScheduleTypeLimits,
    Temperature,              !- Name
    -60,                      !- Lower Limit Value
    200,                      !- Upper Limit Value
    Continuous;               !- Numeric Type

ScheduleTypeLimits,
    On/Off,                   !- Name
    0,                        !- Lower Limit Value
    1,                        !- Upper Limit Value
    Discrete;                 !- Numeric Type

ScheduleTypeLimits,
    Control Type,             !- Name
    0,                        !- Lower Limit Value
    4,                        !- Upper Limit Value
    Discrete;                 !- Numeric Type

ScheduleTypeLimits,
    Humidity,                 !- Name
    10,                       !- Lower Limit Value
    90,                       !- Upper Limit Value
    Continuous;               !- Numeric Type

ScheduleTypeLimits,
    Number;                   !- Name

SCHEDULETYPELIMITS,
    AHU Setpoint Manager bot Type Limits,    !- Name
    0,                        !- Lower Limit Value
    100,                      !- Upper Limit Value
    Continuous,               !- Numeric Type
    Temperature;              !- Unit Type

SCHEDULETYPELIMITS,
    AHU Setpoint Manager mid Type Limits,    !- Name
    0,                        !- Lower Limit Value
    100,                      !- Upper Limit Value
    Continuous,               !- Numeric Type
    Temperature;              !- Unit Type

SCHEDULETYPELIMITS,
    AHU Setpoint Manager top Type Limits,    !- Name
    0,                        !- Lower Limit Value
    100,                      !- Upper Limit Value
    Continuous,               !- Numeric Type
    Temperature;              !- Unit Type

SCHEDULETYPELIMITS,
    Chilled Water Temp Type Limits,    !- Name
    0,                        !- Lower Limit Value
    100,                      !- Upper Limit Value
    Continuous,               !- Numeric Type
    Temperature;              !- Unit Type

SCHEDULETYPELIMITS,
    Hot Water Temperature Type Limits,    !- Name
    0,                        !- Lower Limit Value
    100,                      !- Upper Limit Value
    Continuous,               !- Numeric Type
    Temperature;              !- Unit Type

SCHEDULE:DAY:INTERVAL,
    AHU Setpoint Manager bot Day Schedule,    !- Name
    AHU Setpoint Manager bot Type Limits,    !- Schedule Type Limits Name
    No,                       !- Interpolate to Timestep
    24:00,                    !- Time 1
    12.8;                     !- Value Until Time 1

SCHEDULE:DAY:INTERVAL,
    AHU Setpoint Manager mid Day Schedule,    !- Name
    AHU Setpoint Manager mid Type Limits,    !- Schedule Type Limits Name
    No,                       !- Interpolate to Timestep
    24:00,                    !- Time 1
    12.8;                     !- Value Until Time 1

SCHEDULE:DAY:INTERVAL,
    AHU Setpoint Manager top Day Schedule,    !- Name
    AHU Setpoint Manager top Type Limits,    !- Schedule Type Limits Name
    No,                       !- Interpolate to Timestep
    24:00,                    !- Time 1
    12.8;                     !- Value Until Time 1

SCHEDULE:DAY:INTERVAL,
    Chilled Water Temp Day Schedule,    !- Name
    Chilled Water Temp Type Limits,    !- Schedule Type Limits Name
    No,                       !- Interpolate to Timestep
    24:00,                    !- Time 1
    7;                        !- Value Until Time 1

SCHEDULE:DAY:INTERVAL,
    Hot Water Temperature Day Schedule,    !- Name
    Hot Water Temperature Type Limits,    !- Schedule Type Limits Name
    No,                       !- Interpolate to Timestep
    24:00,                    !- Time 1
    60;                       !- Value Until Time 1

SCHEDULE:WEEK:DAILY,
    AHU Setpoint Manager bot Week Schedule,    !- Name
    AHU Setpoint Manager bot Day Schedule,    !- Sunday ScheduleDay Name
    AHU Setpoint Manager bot Day Schedule,    !- Monday ScheduleDay Name
    AHU Setpoint Manager bot Day Schedule,    !- Tuesday ScheduleDay Name
    AHU Setpoint Manager bot Day Schedule,    !- Wednesday ScheduleDay Name
    AHU Setpoint Manager bot Day Schedule,    !- Thursday ScheduleDay Name
    AHU Setpoint Manager bot Day Schedule,    !- Friday ScheduleDay Name
    AHU Setpoint Manager bot Day Schedule,    !- Saturday ScheduleDay Name
    AHU Setpoint Manager bot Day Schedule,    !- Holiday ScheduleDay Name
    AHU Setpoint Manager bot Day Schedule,    !- SummerDesignDay ScheduleDay Name
    AHU Setpoint Manager bot Day Schedule,    !- WinterDesignDay ScheduleDay Name
    AHU Setpoint Manager bot Day Schedule,    !- CustomDay1 ScheduleDay Name
    AHU Setpoint Manager bot Day Schedule;    !- CustomDay2 ScheduleDay Name

SCHEDULE:WEEK:DAILY,
    AHU Setpoint Manager mid Week Schedule,    !- Name
    AHU Setpoint Manager mid Day Schedule,    !- Sunday ScheduleDay Name
    AHU Setpoint Manager mid Day Schedule,    !- Monday ScheduleDay Name
    AHU Setpoint Manager mid Day Schedule,    !- Tuesday ScheduleDay Name
    AHU Setpoint Manager mid Day Schedule,    !- Wednesday ScheduleDay Name
    AHU Setpoint Manager mid Day Schedule,    !- Thursday ScheduleDay Name
    AHU Setpoint Manager mid Day Schedule,    !- Friday ScheduleDay Name
    AHU Setpoint Manager mid Day Schedule,    !- Saturday ScheduleDay Name
    AHU Setpoint Manager mid Day Schedule,    !- Holiday ScheduleDay Name
    AHU Setpoint Manager mid Day Schedule,    !- SummerDesignDay ScheduleDay Name
    AHU Setpoint Manager mid Day Schedule,    !- WinterDesignDay ScheduleDay Name
    AHU Setpoint Manager mid Day Schedule,    !- CustomDay1 ScheduleDay Name
    AHU Setpoint Manager mid Day Schedule;    !- CustomDay2 ScheduleDay Name

SCHEDULE:WEEK:DAILY,
    AHU Setpoint Manager top Week Schedule,    !- Name
    AHU Setpoint Manager top Day Schedule,    !- Sunday ScheduleDay Name
    AHU Setpoint Manager top Day Schedule,    !- Monday ScheduleDay Name
    AHU Setpoint Manager top Day Schedule,    !- Tuesday ScheduleDay Name
    AHU Setpoint Manager top Day Schedule,    !- Wednesday ScheduleDay Name
    AHU Setpoint Manager top Day Schedule,    !- Thursday ScheduleDay Name
    AHU Setpoint Manager top Day Schedule,    !- Friday ScheduleDay Name
    AHU Setpoint Manager top Day Schedule,    !- Saturday ScheduleDay Name
    AHU Setpoint Manager top Day Schedule,    !- Holiday ScheduleDay Name
    AHU Setpoint Manager top Day Schedule,    !- SummerDesignDay ScheduleDay Name
    AHU Setpoint Manager top Day Schedule,    !- WinterDesignDay ScheduleDay Name
    AHU Setpoint Manager top Day Schedule,    !- CustomDay1 ScheduleDay Name
    AHU Setpoint Manager top Day Schedule;    !- CustomDay2 ScheduleDay Name

SCHEDULE:WEEK:DAILY,
    Chilled Water Temp Week Schedule,    !- Name
    Chilled Water Temp Day Schedule,    !- Sunday ScheduleDay Name
    Chilled Water Temp Day Schedule,    !- Monday ScheduleDay Name
    Chilled Water Temp Day Schedule,    !- Tuesday ScheduleDay Name
    Chilled Water Temp Day Schedule,    !- Wednesday ScheduleDay Name
    Chilled Water Temp Day Schedule,    !- Thursday ScheduleDay Name
    Chilled Water Temp Day Schedule,    !- Friday ScheduleDay Name
    Chilled Water Temp Day Schedule,    !- Saturday ScheduleDay Name
    Chilled Water Temp Day Schedule,    !- Holiday ScheduleDay Name
    Chilled Water Temp Day Schedule,    !- SummerDesignDay ScheduleDay Name
    Chilled Water Temp Day Schedule,    !- WinterDesignDay ScheduleDay Name
    Chilled Water Temp Day Schedule,    !- CustomDay1 ScheduleDay Name
    Chilled Water Temp Day Schedule;    !- CustomDay2 ScheduleDay Name

SCHEDULE:WEEK:DAILY,
    Hot Water Temperature Week Schedule,    !- Name
    Hot Water Temperature Day Schedule,    !- Sunday ScheduleDay Name
    Hot Water Temperature Day Schedule,    !- Monday ScheduleDay Name
    Hot Water Temperature Day Schedule,    !- Tuesday ScheduleDay Name
    Hot Water Temperature Day Schedule,    !- Wednesday ScheduleDay Name
    Hot Water Temperature Day Schedule,    !- Thursday ScheduleDay Name
    Hot Water Temperature Day Schedule,    !- Friday ScheduleDay Name
    Hot Water Temperature Day Schedule,    !- Saturday ScheduleDay Name
    Hot Water Temperature Day Schedule,    !- Holiday ScheduleDay Name
    Hot Water Temperature Day Schedule,    !- SummerDesignDay ScheduleDay Name
    Hot Water Temperature Day Schedule,    !- WinterDesignDay ScheduleDay Name
    Hot Water Temperature Day Schedule,    !- CustomDay1 ScheduleDay Name
    Hot Water Temperature Day Schedule;    !- CustomDay2 ScheduleDay Name

SCHEDULE:YEAR,
    AHU Setpoint Manager bot,    !- Name
    AHU Setpoint Manager bot Type Limits,    !- Schedule Type Limits Name
    AHU Setpoint Manager bot Week Schedule,    !- ScheduleWeek Name 1
    1,                        !- Start Month 1
    1,                        !- Start Day 1
    12,                       !- End Month 1
    31;                       !- End Day 1

SCHEDULE:YEAR,
    AHU Setpoint Manager mid,    !- Name
    AHU Setpoint Manager mid Type Limits,    !- Schedule Type Limits Name
    AHU Setpoint Manager mid Week Schedule,    !- ScheduleWeek Name 1
    1,                        !- Start Month 1
    1,                        !- Start Day 1
    12,                       !- End Month 1
    31;                       !- End Day 1

SCHEDULE:YEAR,
    AHU Setpoint Manager top,    !- Name
    AHU Setpoint Manager top Type Limits,    !- Schedule Type Limits Name
    AHU Setpoint Manager top Week Schedule,    !- ScheduleWeek Name 1
    1,                        !- Start Month 1
    1,                        !- Start Day 1
    12,                       !- End Month 1
    31;                       !- End Day 1

SCHEDULE:YEAR,
    Chilled Water Temp,       !- Name
    Chilled Water Temp Type Limits,    !- Schedule Type Limits Name
    Chilled Water Temp Week Schedule,    !- ScheduleWeek Name 1
    1,                        !- Start Month 1
    1,                        !- Start Day 1
    12,                       !- End Month 1
    31;                       !- End Day 1

SCHEDULE:YEAR,
    Hot Water Temperature,    !- Name
    Hot Water Temperature Type Limits,    !- Schedule Type Limits Name
    Hot Water Temperature Week Schedule,    !- ScheduleWeek Name 1
    1,                        !- Start Month 1
    1,                        !- Start Day 1
    12,                       !- End Month 1
    31;                       !- End Day 1

Schedule:Compact,
    PV_SCH,                   !- Name
    Fraction,                 !- Schedule Type Limits Name
    Through: 12/31,           !- Field 1
    For: AllDays,             !- Field 2
    Until: 24:00,             !- Field 3
    1;                        !- Field 4

Schedule:Compact,
    Exterior_lighting_schedule_a,    !- Name
    fraction,                 !- Schedule Type Limits Name
    Through:12/31,            !- Field 1
    For:AllDays,              !- Field 2
    Until: 06:00,             !- Field 3
    0,                        !- Field 4
    Until: 24:00,             !- Field 5
    1;                        !- Field 6

Schedule:Compact,
    Exterior_lighting_schedule_b,    !- Name
    fraction,                 !- Schedule Type Limits Name
    Through:12/31,            !- Field 1
    For:AllDays,              !- Field 2
    Until: 06:00,             !- Field 3
    0.7,                      !- Field 4
    Until: 24:00,             !- Field 5
    1;                        !- Field 6

Schedule:Compact,
    Exterior_lighting_schedule_a_IECC2015,    !- Name
    fraction,                 !- Schedule Type Limits Name
    Through:12/31,            !- Field 1
    For:Weekdays SummerDesignDay,    !- Field 2
    Until: 07:00,             !- Field 3
    0,                        !- Field 4
    Until: 22:00,             !- Field 5
    1,                        !- Field 6
    Until: 24:00,             !- Field 7
    0,                        !- Field 8
    For:Saturdays,            !- Field 9
    Until: 07:00,             !- Field 10
    0,                        !- Field 11
    Until: 18:00,             !- Field 12
    1,                        !- Field 13
    Until: 24:00,             !- Field 14
    0,                        !- Field 15
    For:AllOtherDays,         !- Field 16
    Until: 24:00,             !- Field 17
    0;                        !- Field 18

Schedule:Compact,
    Exterior_lighting_schedule_b_2016,    !- Name
    fraction,                 !- Schedule Type Limits Name
    Through:12/31,            !- Field 1
    For:AllDays,              !- Field 2
    Until: 06:00,             !- Field 3
    0.5,                      !- Field 4
    Until: 24:00,             !- Field 5
    1;                        !- Field 6

Schedule:Compact,
    Exterior_lighting_schedule_c_2016,    !- Name
    fraction,                 !- Schedule Type Limits Name
    Through:12/31,            !- Field 1
    For:AllDays,              !- Field 2
    Until: 06:00,             !- Field 3
    0.5,                      !- Field 4
    Until: 19:00,             !- Field 5
    1,                        !- Field 6
    Until: 24:00,             !- Field 7
    0.5;                      !- Field 8

Schedule:Compact,
    Hours_of_operation,       !- Name
    on/off,                   !- Schedule Type Limits Name
    Through: 12/31,           !- Field 1
    For: Weekdays SummerDesignDay,    !- Field 2
    Until: 06:00,             !- Field 3
    0.0,                      !- Field 4
    Until: 22:00,             !- Field 5
    1.0,                      !- Field 6
    Until: 24:00,             !- Field 7
    0.0,                      !- Field 8
    For: Saturday WinterDesignDay,    !- Field 9
    Until: 06:00,             !- Field 10
    0.0,                      !- Field 11
    Until: 18:00,             !- Field 12
    1.0,                      !- Field 13
    Until: 24:00,             !- Field 14
    0.0,                      !- Field 15
    For:Sunday Holidays AllOtherDays,    !- Field 16
    Until: 24:00,             !- Field 17
    0.0;                      !- Field 18

Schedule:Compact,
    ALWAYS_ON,                !- Name
    Fraction,                 !- Schedule Type Limits Name
    Through: 12/31,           !- Field 1
    For: AllDays,             !- Field 2
    Until: 24:00,             !- Field 3
    1.0;                      !- Field 4

Schedule:Compact,
    Exterior_Lgt_ALWAYS_ON,    !- Name
    Fraction,                 !- Schedule Type Limits Name
    Through: 12/31,           !- Field 1
    For: AllDays,             !- Field 2
    Until: 24:00,             !- Field 3
    1;                        !- Field 4

Schedule:Compact,
    Exterior_Lgt_189_1,       !- Name
    Fraction,                 !- Schedule Type Limits Name
    Through:12/31,            !- Field 1
    For:Weekdays,             !- Field 2
    Until:  9:00,             !- Field 3
    0.5,                      !- Field 4
    Until: 24:00,             !- Field 5
    1.0,                      !- Field 6
    For:Saturday,             !- Field 7
    Until:  9:00,             !- Field 8
    0.5,                      !- Field 9
    Until: 19:00,             !- Field 10
    1.0,                      !- Field 11
    Until: 24:00,             !- Field 12
    0.5,                      !- Field 13
    For:Sunday Holidays AllOtherDays,    !- Field 14
    Until:  9:00,             !- Field 15
    0.5,                      !- Field 16
    Until: 18:00,             !- Field 17
    1.0,                      !- Field 18
    Until: 24:00,             !- Field 19
    0.5;                      !- Field 20

Schedule:Compact,
    ALWAYS_OFF,               !- Name
    Fraction,                 !- Schedule Type Limits Name
    Through: 12/31,           !- Field 1
    For: AllDays,             !- Field 2
    Until: 24:00,             !- Field 3
    0.0;                      !- Field 4

Schedule:Compact,
    HVACOperationSchd,        !- Name
    on/off,                   !- Schedule Type Limits Name
    Through: 12/31,           !- Field 1
    For: Weekdays SummerDesignDay,    !- Field 2
    Until: 06:00,             !- Field 3
    0.0,                      !- Field 4
    Until: 22:00,             !- Field 5
    1.0,                      !- Field 6
    Until: 24:00,             !- Field 7
    0.0,                      !- Field 8
    For: Saturday WinterDesignDay,    !- Field 9
    Until: 06:00,             !- Field 10
    0.0,                      !- Field 11
    Until: 18:00,             !- Field 12
    1.0,                      !- Field 13
    Until: 24:00,             !- Field 14
    0.0,                      !- Field 15
    For:Sunday Holidays AllOtherDays,    !- Field 16
    Until: 24:00,             !- Field 17
    0.0;                      !- Field 18

SCHEDULE:COMPACT,
    ltg_sch_office,           !- Name
    Fraction,                 !- Schedule Type Limits Name
    Through: 12/31,           !- Field 1
    For: SummerDesignDay,     !- Field 2
    Until: 24:00,             !- Field 3
    1,                        !- Field 4
    For: WinterDesignDay,     !- Field 5
    Until: 24:00,             !- Field 6
    0,                        !- Field 7
    For: Weekdays,            !- Field 8
    Until: 5:00,              !- Field 9
    0.033948074435,           !- Field 10
    Until: 7:00,              !- Field 11
    0.06790544461875,         !- Field 12
    Until: 8:00,              !- Field 13
    0.20371633385625,         !- Field 14
    Until: 17:00,             !- Field 15
    0.61114900156875,         !- Field 16
    Until: 18:00,             !- Field 17
    0.33952722309375,         !- Field 18
    Until: 20:00,             !- Field 19
    0.20371633385625,         !- Field 20
    Until: 22:00,             !- Field 21
    0.1358108892375,          !- Field 22
    Until: 23:00,             !- Field 23
    0.06790544461875,         !- Field 24
    Until: 24:00,             !- Field 25
    0.033948074435,           !- Field 26
    For: Saturday,            !- Field 27
    Until: 6:00,              !- Field 28
    0.033948074435,           !- Field 29
    Until: 8:00,              !- Field 30
    0.06790544461875,         !- Field 31
    Until: 12:00,             !- Field 32
    0.20371633385625,         !- Field 33
    Until: 17:00,             !- Field 34
    0.10185351905375,         !- Field 35
    Until: 24:00,             !- Field 36
    0.033948074435,           !- Field 37
    For: AllOtherDays,        !- Field 38
    Until: 24:00,             !- Field 39
    0.033948074435;           !- Field 40

Schedule:Compact,
    BLDG_EQUIP_SCH,           !- Name
    Fraction,                 !- Schedule Type Limits Name
    Through: 12/31,           !- Field 1
    For: Weekdays,            !- Field 2
    Until: 06:00,             !- Field 3
    0.3076738408,             !- Field 4
    Until: 08:00,             !- Field 5
    0.381234796,              !- Field 6
    Until: 12:00,             !- Field 7
    0.857778291,              !- Field 8
    Until: 13:00,             !- Field 9
    0.762469592,              !- Field 10
    Until: 17:00,             !- Field 11
    0.857778291,              !- Field 12
    Until: 18:00,             !- Field 13
    0.476543495,              !- Field 14
    Until: 24:00,             !- Field 15
    0.381234796,              !- Field 16
    For: SummerDesignDay,     !- Field 17
    Until: 24:00,             !- Field 18
    1.0,                      !- Field 19
    For: Saturday,            !- Field 20
    Until: 06:00,             !- Field 21
    0.2307553806,             !- Field 22
    Until: 08:00,             !- Field 23
    0.381234796,              !- Field 24
    Until: 12:00,             !- Field 25
    0.476543495,              !- Field 26
    Until: 17:00,             !- Field 27
    0.3335804465,             !- Field 28
    Until: 19:00,             !- Field 29
    0.285926097,              !- Field 30
    Until: 24:00,             !- Field 31
    0.2307553806,             !- Field 32
    For: WinterDesignDay,     !- Field 33
    Until: 24:00,             !- Field 34
    0.0,                      !- Field 35
    For: Sunday Holidays AllOtherDays,    !- Field 36
    Until: 06:00,             !- Field 37
    0.2307553806,             !- Field 38
    Until: 18:00,             !- Field 39
    0.285926097,              !- Field 40
    Until: 24:00,             !- Field 41
    0.2307553806;             !- Field 42

Schedule:Compact,
    BLDG_OCC_SCH,             !- Name
    Fraction,                 !- Schedule Type Limits Name
    Through: 12/31,           !- Field 1
    For: Weekdays,            !- Field 2