!- Windows Line endings 

Version,
    24.2;                     !- Version Identifier

SimulationControl,
    Yes,                      !- Do Zone Sizing Calculation
    Yes,                      !- Do System Sizing Calculation
    Yes,                      !- Do Plant Sizing Calculation
    No,                       !- Run Simulation for Sizing Periods
    Yes,                      !- Run Simulation for Weather File Run Periods
    No,                       !- Do HVAC Sizing Simulation for Sizing Periods
    1;                        !- Maximum Number of HVAC Sizing Simulation Passes

Building,
    RestaurantFastFood,       !- Name
    0,                        !- North Axis
    City,                     !- Terrain
    0.04,                     !- Loads Convergence Tolerance Value
    0.2,                      !- Temperature Convergence Tolerance Value
    FullInteriorAndExterior,    !- Solar Distribution
    25,                       !- Maximum Number of Warmup Days
    6;                        !- Minimum Number of Warmup Days

ShadowCalculation,
    PolygonClipping,          !- Shading Calculation Method
    Periodic,                 !- Shading Calculation Update Frequency Method
    30,                       !- Shading Calculation Update Frequency
    15000;                    !- Maximum Figures in Shadow Overlap Calculations

SurfaceConvectionAlgorithm:Inside,
    TARP;                     !- Algorithm

SurfaceConvectionAlgorithm:Outside,
    TARP;                     !- Algorithm

HeatBalanceAlgorithm,
    ConductionTransferFunction,    !- Algorithm
    200;                      !- Surface Temperature Upper Limit

Timestep,
    6;                        !- Number of Timesteps per Hour

ConvergenceLimits,
    1,                        !- Minimum System Timestep
    20;                       !- Maximum HVAC Iterations

Site:Location,
    New.York-John.F.Kennedy.Intl.AP_NY_USA WMO=744860,    !- Name
    40.66,                    !- Latitude
    -73.8,                    !- Longitude
    -5,                       !- Time Zone
    7;                        !- Elevation

SizingPeriod:DesignDay,
    New.York-John.F.Kennedy.Intl.AP_NY_USA Ann Htg 99.6% Condns DB,    !- Name
    1,                        !- Month
    21,                       !- Day of Month
    WinterDesignDay,          !- Day Type
    -10.7,                    !- Maximum DryBulb Temperature
    0,                        !- Daily DryBulb Temperature Range
    DefaultMultipliers,       !- DryBulb Temperature Range Modifier Type
    ,                         !- DryBulb Temperature Range Modifier Day Schedule Name
    Wetbulb,                  !- Humidity Condition Type
    -10.7,                    !- Wetbulb or DewPoint at Maximum DryBulb
    ,                         !- Humidity Condition Day Schedule Name
    ,                         !- Humidity Ratio at Maximum DryBulb
    ,                         !- Enthalpy at Maximum DryBulb
    ,                         !- Daily WetBulb Temperature Range
    101241,                   !- Barometric Pressure
    7.5,                      !- Wind Speed
    320,                      !- Wind Direction
    No,                       !- Rain Indicator
    No,                       !- Snow Indicator
    No,                       !- Daylight Saving Time Indicator
    ASHRAEClearSky,           !- Solar Model Indicator
    ,                         !- Beam Solar Day Schedule Name
    ,                         !- Diffuse Solar Day Schedule Name
    ,                         !- ASHRAE Clear Sky Optical Depth for Beam Irradiance taub
    ,                         !- ASHRAE Clear Sky Optical Depth for Diffuse Irradiance taud
    0;                        !- Sky Clearness

SizingPeriod:DesignDay,
    New.York-John.F.Kennedy.Intl.AP_NY_USA Ann Clg .4% Condns DB=>MWB,    !- Name
    7,                        !- Month
    21,                       !- Day of Month
    SummerDesignDay,          !- Day Type
    32.1,                     !- Maximum DryBulb Temperature
    7.4,                      !- Daily DryBulb Temperature Range
    DefaultMultipliers,       !- DryBulb Temperature Range Modifier Type
    ,                         !- DryBulb Temperature Range Modifier Day Schedule Name
    Wetbulb,                  !- Humidity Condition Type
    23.1,                     !- Wetbulb or DewPoint at Maximum DryBulb
    ,                         !- Humidity Condition Day Schedule Name
    ,                         !- Humidity Ratio at Maximum DryBulb
    ,                         !- Enthalpy at Maximum DryBulb
    ,                         !- Daily WetBulb Temperature Range
    101241,                   !- Barometric Pressure
    5.6,                      !- Wind Speed
    230,                      !- Wind Direction
    No,                       !- Rain Indicator
    No,                       !- Snow Indicator
    No,                       !- Daylight Saving Time Indicator
    ASHRAETau,                !- Solar Model Indicator
    ,                         !- Beam Solar Day Schedule Name
    ,                         !- Diffuse Solar Day Schedule Name
    0.541,                    !- ASHRAE Clear Sky Optical Depth for Beam Irradiance taub
    1.8;                      !- ASHRAE Clear Sky Optical Depth for Diffuse Irradiance taud

RunPeriod,
    RUNPERIOD 1,              !- Name
    1,                        !- Begin Month
    1,                        !- Begin Day of Month
    ,                         !- Begin Year
    12,                       !- End Month
    31,                       !- End Day of Month
    ,                         !- End Year
    Sunday,                   !- Day of Week for Start Day
    No,                       !- Use Weather File Holidays and Special Days
    No,                       !- Use Weather File Daylight Saving Period
    No,                       !- Apply Weekend Holiday Rule
    Yes,                      !- Use Weather File Rain Indicators
    Yes;                      !- Use Weather File Snow Indicators

RunPeriodControl:SpecialDays,
    New Years Day,            !- Name
    January 1,                !- Start Date
    1,                        !- Duration
    Holiday;                  !- Special Day Type

RunPeriodControl:SpecialDays,
    Veterans Day,             !- Name
    November 11,              !- Start Date
    1,                        !- Duration
    Holiday;                  !- Special Day Type

RunPeriodControl:SpecialDays,
    Christmas,                !- Name
    December 25,              !- Start Date
    1,                        !- Duration
    Holiday;                  !- Special Day Type

RunPeriodControl:SpecialDays,
    Independence Day,         !- Name
    July 4,                   !- Start Date
    1,                        !- Duration
    Holiday;                  !- Special Day Type

RunPeriodControl:SpecialDays,
    MLK Day,                  !- Name
    3rd Monday in January,    !- Start Date
    1,                        !- Duration
    Holiday;                  !- Special Day Type

RunPeriodControl:SpecialDays,
    Presidents Day,           !- Name
    3rd Monday in February,    !- Start Date
    1,                        !- Duration
    Holiday;                  !- Special Day Type

RunPeriodControl:SpecialDays,
    Memorial Day,             !- Name
    Last Monday in May,       !- Start Date
    1,                        !- Duration
    Holiday;                  !- Special Day Type

RunPeriodControl:SpecialDays,
    Labor Day,                !- Name
    1st Monday in September,    !- Start Date
    1,                        !- Duration
    Holiday;                  !- Special Day Type

RunPeriodControl:SpecialDays,
    Columbus Day,             !- Name
    2nd Monday in October,    !- Start Date
    1,                        !- Duration
    Holiday;                  !- Special Day Type

RunPeriodControl:SpecialDays,
    Thanksgiving,             !- Name
    4th Thursday in November,    !- Start Date
    1,                        !- Duration
    Holiday;                  !- Special Day Type

RunPeriodControl:DaylightSavingTime,
    2nd Sunday in March,      !- Start Date
    1st Sunday in November;    !- End Date

Site:GroundTemperature:FCfactorMethod,
    14,                       !- January Ground Temperature
    7.3,                      !- February Ground Temperature
    3.3,                      !- March Ground Temperature
    1.2,                      !- April Ground Temperature
    -0.2,                     !- May Ground Temperature
    5.6,                      !- June Ground Temperature
    10.9,                     !- July Ground Temperature
    16.1,                     !- August Ground Temperature
    21.7,                     !- September Ground Temperature
    25,                       !- October Ground Temperature
    24.8,                     !- November Ground Temperature
    19.9;                     !- December Ground Temperature

Site:WaterMainsTemperature,
    Correlation,              !- Calculation Method
    ,                         !- Temperature Schedule Name
    12.4666666666667,         !- Annual Average Outdoor Air Temperature
    25.2;                     !- Maximum Difference In Monthly Average Outdoor Air Temperatures

ScheduleTypeLimits,
    Any Number;               !- Name

ScheduleTypeLimits,
    Fraction,                 !- Name
    0,                        !- Lower Limit Value
    1,                        !- Upper Limit Value
    CONTINUOUS;               !- Numeric Type

ScheduleTypeLimits,
    Temperature,              !- Name
    -60,                      !- Lower Limit Value
    200,                      !- Upper Limit Value
    CONTINUOUS;               !- Numeric Type

ScheduleTypeLimits,
    On/Off,                   !- Name
    0,                        !- Lower Limit Value
    1,                        !- Upper Limit Value
    DISCRETE;                 !- Numeric Type

ScheduleTypeLimits,
    Control Type,             !- Name
    0,                        !- Lower Limit Value
    4,                        !- Upper Limit Value
    DISCRETE;                 !- Numeric Type

ScheduleTypeLimits,
    Humidity,                 !- Name
    10,                       !- Lower Limit Value
    90,                       !- Upper Limit Value
    CONTINUOUS;               !- Numeric Type

ScheduleTypeLimits,
    Number;                   !- Name

SCHEDULETYPELIMITS,
    AHU Setpoint Manager 0 Type Limits,    !- Name
    0,                        !- Lower Limit Value
    100,                      !- Upper Limit Value
    Continuous,               !- Numeric Type
    Temperature;              !- Unit Type

SCHEDULETYPELIMITS,
    Chilled Water Temp Type Limits,    !- Name
    0,                        !- Lower Limit Value
    100,                      !- Upper Limit Value
    Continuous,               !- Numeric Type
    Temperature;              !- Unit Type

SCHEDULETYPELIMITS,
    Hot Water Temperature Type Limits,    !- Name
    0,                        !- Lower Limit Value
    100,                      !- Upper Limit Value
    Continuous,               !- Numeric Type
    Temperature;              !- Unit Type

SCHEDULE:DAY:INTERVAL,
    AHU Setpoint Manager 0 Day Schedule,    !- Name
    AHU Setpoint Manager 0 Type Limits,    !- Schedule Type Limits Name
    No,                       !- Interpolate to Timestep
    24:00,                    !- Time 1
    12.8;                     !- Value Until Time 1

SCHEDULE:DAY:INTERVAL,
    Chilled Water Temp Day Schedule,    !- Name
    Chilled Water Temp Type Limits,    !- Schedule Type Limits Name
    No,                       !- Interpolate to Timestep
    24:00,                    !- Time 1
    7;                        !- Value Until Time 1

SCHEDULE:DAY:INTERVAL,
    Hot Water Temperature Day Schedule,    !- Name
    Hot Water Temperature Type Limits,    !- Schedule Type Limits Name
    No,                       !- Interpolate to Timestep
    24:00,                    !- Time 1
    60;                       !- Value Until Time 1

SCHEDULE:WEEK:DAILY,
    AHU Setpoint Manager 0 Week Schedule,    !- Name
    AHU Setpoint Manager 0 Day Schedule,    !- Sunday ScheduleDay Name
    AHU Setpoint Manager 0 Day Schedule,    !- Monday ScheduleDay Name
    AHU Setpoint Manager 0 Day Schedule,    !- Tuesday ScheduleDay Name
    AHU Setpoint Manager 0 Day Schedule,    !- Wednesday ScheduleDay Name
    AHU Setpoint Manager 0 Day Schedule,    !- Thursday ScheduleDay Name
    AHU Setpoint Manager 0 Day Schedule,    !- Friday ScheduleDay Name
    AHU Setpoint Manager 0 Day Schedule,    !- Saturday ScheduleDay Name
    AHU Setpoint Manager 0 Day Schedule,    !- Holiday ScheduleDay Name
    AHU Setpoint Manager 0 Day Schedule,    !- SummerDesignDay ScheduleDay Name
    AHU Setpoint Manager 0 Day Schedule,    !- WinterDesignDay ScheduleDay Name
    AHU Setpoint Manager 0 Day Schedule,    !- CustomDay1 ScheduleDay Name
    AHU Setpoint Manager 0 Day Schedule;    !- CustomDay2 ScheduleDay Name

SCHEDULE:WEEK:DAILY,
    Chilled Water Temp Week Schedule,    !- Name
    Chilled Water Temp Day Schedule,    !- Sunday ScheduleDay Name
    Chilled Water Temp Day Schedule,    !- Monday ScheduleDay Name
    Chilled Water Temp Day Schedule,    !- Tuesday ScheduleDay Name
    Chilled Water Temp Day Schedule,    !- Wednesday ScheduleDay Name
    Chilled Water Temp Day Schedule,    !- Thursday ScheduleDay Name
    Chilled Water Temp Day Schedule,    !- Friday ScheduleDay Name
    Chilled Water Temp Day Schedule,    !- Saturday ScheduleDay Name
    Chilled Water Temp Day Schedule,    !- Holiday ScheduleDay Name
    Chilled Water Temp Day Schedule,    !- SummerDesignDay ScheduleDay Name
    Chilled Water Temp Day Schedule,    !- WinterDesignDay ScheduleDay Name
    Chilled Water Temp Day Schedule,    !- CustomDay1 ScheduleDay Name
    Chilled Water Temp Day Schedule;    !- CustomDay2 ScheduleDay Name

SCHEDULE:WEEK:DAILY,
    Hot Water Temperature Week Schedule,    !- Name
    Hot Water Temperature Day Schedule,    !- Sunday ScheduleDay Name
    Hot Water Temperature Day Schedule,    !- Monday ScheduleDay Name
    Hot Water Temperature Day Schedule,    !- Tuesday ScheduleDay Name
    Hot Water Temperature Day Schedule,    !- Wednesday ScheduleDay Name
    Hot Water Temperature Day Schedule,    !- Thursday ScheduleDay Name
    Hot Water Temperature Day Schedule,    !- Friday ScheduleDay Name
    Hot Water Temperature Day Schedule,    !- Saturday ScheduleDay Name
    Hot Water Temperature Day Schedule,    !- Holiday ScheduleDay Name
    Hot Water Temperature Day Schedule,    !- SummerDesignDay ScheduleDay Name
    Hot Water Temperature Day Schedule,    !- WinterDesignDay ScheduleDay Name
    Hot Water Temperature Day Schedule,    !- CustomDay1 ScheduleDay Name
    Hot Water Temperature Day Schedule;    !- CustomDay2 ScheduleDay Name

SCHEDULE:YEAR,
    AHU Setpoint Manager 0,    !- Name
    AHU Setpoint Manager 0 Type Limits,    !- Schedule Type Limits Name
    AHU Setpoint Manager 0 Week Schedule,    !- ScheduleWeek Name 1
    1,                        !- Start Month 1
    1,                        !- Start Day 1
    12,                       !- End Month 1
    31;                       !- End Day 1

SCHEDULE:YEAR,
    Chilled Water Temp,       !- Name
    Chilled Water Temp Type Limits,    !- Schedule Type Limits Name
    Chilled Water Temp Week Schedule,    !- ScheduleWeek Name 1
    1,                        !- Start Month 1
    1,                        !- Start Day 1
    12,                       !- End Month 1
    31;                       !- End Day 1

SCHEDULE:YEAR,
    Hot Water Temperature,    !- Name
    Hot Water Temperature Type Limits,    !- Schedule Type Limits Name
    Hot Water Temperature Week Schedule,    !- ScheduleWeek Name 1
    1,                        !- Start Month 1
    1,                        !- Start Day 1
    12,                       !- End Month 1
    31;                       !- End Day 1

SCHEDULE:COMPACT,
    ltg_sch_dining,           !- Name
    Fraction,                 !- Schedule Type Limits Name
    Through: 12/31,           !- Field 1
    For: SummerDesignDay,     !- Field 2
    Until: 24:00,             !- Field 3
    1,                        !- Field 4
    For: WinterDesignDay,     !- Field 5
    Until: 24:00,             !- Field 6
    0,                        !- Field 7
    For: Weekdays,            !- Field 8
    Until: 5:00,              !- Field 9
    0.13686,                  !- Field 10
    Until: 6:00,              !- Field 11
    0.18248,                  !- Field 12
    Until: 8:00,              !- Field 13
    0.36496,                  !- Field 14
    Until: 10:00,             !- Field 15
    0.54743,                  !- Field 16
    Until: 22:00,             !- Field 17
    0.82115,                  !- Field 18
    Until: 23:00,             !- Field 19
    0.4562,                   !- Field 20
    Until: 24:00,             !- Field 21
    0.27372,                  !- Field 22
    For: Saturday,            !- Field 23
    Until: 1:00,              !- Field 24
    0.18248,                  !- Field 25
    Until: 6:00,              !- Field 26
    0.13686,                  !- Field 27
    Until: 8:00,              !- Field 28
    0.27372,                  !- Field 29
    Until: 10:00,             !- Field 30
    0.54743,                  !- Field 31
    Until: 17:00,             !- Field 32
    0.72991,                  !- Field 33
    Until: 22:00,             !- Field 34
    0.82115,                  !- Field 35
    Until: 23:00,             !- Field 36
    0.4562,                   !- Field 37
    Until: 24:00,             !- Field 38
    0.27372,                  !- Field 39
    For: AllOtherDays,        !- Field 40
    Until: 1:00,              !- Field 41
    0.18248,                  !- Field 42
    Until: 6:00,              !- Field 43
    0.13686,                  !- Field 44
    Until: 8:00,              !- Field 45
    0.27372,                  !- Field 46
    Until: 10:00,             !- Field 47
    0.4562,                   !- Field 48
    Until: 16:00,             !- Field 49
    0.63867,                  !- Field 50
    Until: 22:00,             !- Field 51
    0.54743,                  !- Field 52
    Until: 23:00,             !- Field 53
    0.4562,                   !- Field 54
    Until: 24:00,             !- Field 55
    0.27372;                  !- Field 56

SCHEDULE:COMPACT,
    ltg_sch_kitchen,          !- Name
    Fraction,                 !- Schedule Type Limits Name
    Through: 12/31,           !- Field 1
    For: SummerDesignDay,     !- Field 2
    Until: 24:00,             !- Field 3
    1,                        !- Field 4
    For: WinterDesignDay,     !- Field 5
    Until: 24:00,             !- Field 6
    0,                        !- Field 7
    For: Weekdays,            !- Field 8
    Until: 5:00,              !- Field 9
    0.1336,                   !- Field 10
    Until: 6:00,              !- Field 11
    0.17813,                  !- Field 12
    Until: 8:00,              !- Field 13
    0.35626,                  !- Field 14
    Until: 10:00,             !- Field 15
    0.53439,                  !- Field 16
    Until: 22:00,             !- Field 17
    0.80159,                  !- Field 18
    Until: 23:00,             !- Field 19
    0.44533,                  !- Field 20
    Until: 24:00,             !- Field 21
    0.2672,                   !- Field 22
    For: Saturday,            !- Field 23
    Until: 1:00,              !- Field 24
    0.17813,                  !- Field 25
    Until: 6:00,              !- Field 26
    0.1336,                   !- Field 27
    Until: 8:00,              !- Field 28
    0.2672,                   !- Field 29
    Until: 10:00,             !- Field 30
    0.53439,                  !- Field 31
    Until: 17:00,             !- Field 32
    0.71252,                  !- Field 33
    Until: 22:00,             !- Field 34
    0.80159,                  !- Field 35
    Until: 23:00,             !- Field 36
    0.44533,                  !- Field 37
    Until: 24:00,             !- Field 38
    0.2672,                   !- Field 39
    For: AllOtherDays,        !- Field 40
    Until: 1:00,              !- Field 41
    0.17813,                  !- Field 42
    Until: 6:00,              !- Field 43
    0.1336,                   !- Field 44
    Until: 8:00,              !- Field 45
    0.2672,                   !- Field 46
    Until: 10:00,             !- Field 47
    0.44533,                  !- Field 48
    Until: 16:00,             !- Field 49
    0.62345,                  !- Field 50
    Until: 22:00,             !- Field 51
    0.53439,                  !- Field 52
    Until: 23:00,             !- Field 53
    0.44533,                  !- Field 54
    Until: 24:00,             !- Field 55
    0.2672;                   !- Field 56

Schedule:Compact,
    BLDG_EQUIP_SCH,           !- Name
    Fraction,                 !- Schedule Type Limits Name
    Through: 12/31,           !- Field 1
    For: Weekdays,            !- Field 2
    Until: 01:00,             !- Field 3
    0.0299674785,             !- Field 4
    Until: 02:00,             !- Field 5
    0.01990145,               !- Field 6
    Until: 03:00,             !- Field 7
    0.029852175,              !- Field 8
    Until: 04:00,             !- Field 9
    0.01990145,               !- Field 10
    Until: 05:00,             !- Field 11
    0.049753625,              !- Field 12
    Until: 06:00,             !- Field 13
    0.119869914,              !- Field 14
    Until: 07:00,             !- Field 15
    0.1298590735,             !- Field 16
    Until: 08:00,             !- Field 17
    0.1498373925,             !- Field 18
    Until: 09:00,             !- Field 19
    0.179804871,              !- Field 20
    Until: 10:00,             !- Field 21
    0.2097723495,             !- Field 22
    Until: 11:00,             !- Field 23
    0.259718147,              !- Field 24
    Until: 12:00,             !- Field 25
    0.2896856255,             !- Field 26
    Until: 13:00,             !- Field 27
    0.2697073065,             !- Field 28
    Until: 14:00,             !- Field 29
    0.2497289875,             !- Field 30
    Until: 15:00,             !- Field 31
    0.2297506685,             !- Field 32
    Until: 16:00,             !- Field 33
    0.2297506685,             !- Field 34
    Until: 17:00,             !- Field 35
    0.259718147,              !- Field 36
    Until: 18:00,             !- Field 37
    0.259718147,              !- Field 38
    Until: 19:00,             !- Field 39
    0.239739828,              !- Field 40
    Until: 20:00,             !- Field 41
    0.219761509,              !- Field 42
    Until: 21:00,             !- Field 43
    0.19978319,               !- Field 44
    Until: 22:00,             !- Field 45
    0.179804871,              !- Field 46
    Until: 23:00,             !- Field 47
    0.0899024355,             !- Field 48
    Until: 24:00,             !- Field 49
    0.0299674785,             !- Field 50
    For: Saturday,            !- Field 51
    Until: 01:00,             !- Field 52
    0.0299674785,             !- Field 53
    Until: 02:00,             !- Field 54
    0.01990145,               !- Field 55
    Until: 03:00,             !- Field 56
    0.029852175,              !- Field 57
    Until: 04:00,             !- Field 58
    0.01990145,               !- Field 59
    Until: 05:00,             !- Field 60
    0.049753625,              !- Field 61
    Until: 06:00,             !- Field 62
    0.1194087,                !- Field 63
    Until: 07:00,             !- Field 64
    0.1298590735,             !- Field 65
    Until: 08:00,             !- Field 66
    0.1498373925,             !- Field 67
    Until: 09:00,             !- Field 68
    0.179804871,              !- Field 69
    Until: 10:00,             !- Field 70
    0.2097723495,             !- Field 71
    Until: 11:00,             !- Field 72
    0.259718147,              !- Field 73
    Until: 12:00,             !- Field 74
    0.2896856255,             !- Field 75
    Until: 13:00,             !- Field 76
    0.2697073065,             !- Field 77
    Until: 14:00,             !- Field 78
    0.2497289875,             !- Field 79
    Until: 15:00,             !- Field 80
    0.2297506685,             !- Field 81
    Until: 16:00,             !- Field 82
    0.2297506685,             !- Field 83
    Until: 17:00,             !- Field 84
    0.259718147,              !- Field 85
    Until: 18:00,             !- Field 86
    0.259718147,              !- Field 87
    Until: 19:00,             !- Field 88
    0.239739828,              !- Field 89
    Until: 20:00,             !- Field 90
    0.219761509,              !- Field 91
    Until: 21:00,             !- Field 92
    0.19978319,               !- Field 93
    Until: 22:00,             !- Field 94
    0.179804871,              !- Field 95
    Until: 23:00,             !- Field 96
    0.0899024355,             !- Field 97
    Until: 24:00,             !- Field 98
    0.0299674785,             !- Field 99
    For: SummerDesignDay,     !- Field 100
    Until: 24:00,             !- Field 101
    0.29,                     !- Field 102
    For: WinterDesignDay,     !- Field 103
    Until: 24:00,             !- Field 104
    0.0,                      !- Field 105
    For: Sunday Holidays AllOtherDays,    !- Field 106
    Until: 01:00,             !- Field 107
    0.0299674785,             !- Field 108
    Until: 02:00,             !- Field 109
    0.01990145,               !- Field 110
    Until: 03:00,             !- Field 111
    0.029852175,              !- Field 112
    Until: 04:00,             !- Field 113
    0.01990145,               !- Field 114
    Until: 05:00,             !- Field 115
    0.049753625,              !- Field 116
    Until: 06:00,             !- Field 117
    0.1194087,                !- Field 118
    Until: 07:00,             !- Field 119
    0.1298590735,             !- Field 120
    Until: 08:00,             !- Field 121
    0.1498373925,             !- Field 122
    Until: 09:00,             !- Field 123
    0.179804871,              !- Field 124
    Until: 10:00,             !- Field 125
    0.2097723495,             !- Field 126
    Until: 11:00,             !- Field 127
    0.259718147,              !- Field 128
    Until: 12:00,             !- Field 129
    0.2896856255,             !- Field 130
    Until: 13:00,             !- Field 131
    0.2697073065,             !- Field 132
    Until: 14:00,             !- Field 133
    0.2497289875,             !- Field 134
    Until: 15:00,             !- Field 135
    0.2297506685,             !- Field 136
    Until: 16:00,             !- Field 137
    0.2297506685,             !- Field 138
    Until: 17:00,             !- Field 139
    0.259718147,              !- Field 140
    Until: 18:00,             !- Field 141
    0.259718147,              !- Field 142
    Until: 19:00,             !- Field 143
    0.239739828,              !- Field 144
    Until: 20:00,             !- Field 145
    0.219761509,              !- Field 146
    Until: 21:00,             !- Field 147
    0.19978319,               !- Field 148
    Until: 22:00,             !- Field 149
    0.179804871,              !- Field 150
    Until: 23:00,             !- Field 151
    0.0899024355,             !- Field 152
    Until: 24:00,             !- Field 153
    0.0299674785;             !- Field 154

Schedule:Compact,
    FF_GAS_EQUIP_SCH,         !- Name
    Fraction,                 !- Schedule Type Limits Name
    Through: 12/31,           !- Field 1
    For: Weekdays Saturday,    !- Field 2
    Until: 01:00,             !- Field 3
    0.03,                     !- Field 4
    Until: 02:00,             !- Field 5
    0.02,                     !- Field 6
    Until: 03:00,             !- Field 7
    0.03,                     !- Field 8
    Until: 04:00,             !- Field 9
    0.02,                     !- Field 10
    Until: 05:00,             !- Field 11
    0.05,                     !- Field 12
    Until: 06:00,             !- Field 13
    0.12,                     !- Field 14
    Until: 07:00,             !- Field 15
    0.13,                     !- Field 16
    Until: 08:00,             !- Field 17
    0.15,                     !- Field 18
    Until: 09:00,             !- Field 19
    0.18,                     !- Field 20
    Until: 10:00,             !- Field 21
    0.21,                     !- Field 22
    Until: 11:00,             !- Field 23
    0.26,                     !- Field 24
    Until: 12:00,             !- Field 25
    0.29,                     !- Field 26
    Until: 13:00,             !- Field 27
    0.27,                     !- Field 28
    Until: 14:00,             !- Field 29
    0.25,                     !- Field 30
    Until: 15:00,             !- Field 31
    0.23,                     !- Field 32
    Until: 16:00,             !- Field 33
    0.23,                     !- Field 34
    Until: 17:00,             !- Field 35
    0.26,                     !- Field 36
    Until: 18:00,             !- Field 37
    0.26,                     !- Field 38
    Until: 19:00,             !- Field 39
    0.24,                     !- Field 40
    Until: 20:00,             !- Field 41
    0.22,                     !- Field 42
    Until: 21:00,             !- Field 43
    0.20,                     !- Field 44
    Until: 22:00,             !- Field 45
    0.18,                     !- Field 46
    Until: 23:00,             !- Field 47
    0.09,                     !- Field 48
    Until: 24:00,             !- Field 49
    0.03,                     !- Field 50
    For: SummerDesignDay,     !- Field 51
    Until: 24:00,             !- Field 52
    0.29,                     !- Field 53
    For: WinterDesignDay,     !- Field 54