!- Windows Line endings 

Version,
    24.2;                     !- Version Identifier

SimulationControl,
    Yes,                      !- Do Zone Sizing Calculation
    Yes,                      !- Do System Sizing Calculation
    Yes,                      !- Do Plant Sizing Calculation
    No,                       !- Run Simulation for Sizing Periods
    Yes,                      !- Run Simulation for Weather File Run Periods
    No,                       !- Do HVAC Sizing Simulation for Sizing Periods
    1;                        !- Maximum Number of HVAC Sizing Simulation Passes

Building,
    RetailStripmall,          !- Name
    0,                        !- North Axis
    City,                     !- Terrain
    0.04,                     !- Loads Convergence Tolerance Value
    0.2,                      !- Temperature Convergence Tolerance Value
    FullInteriorAndExterior,    !- Solar Distribution
    25,                       !- Maximum Number of Warmup Days
    6;                        !- Minimum Number of Warmup Days

ShadowCalculation,
    PolygonClipping,          !- Shading Calculation Method
    Periodic,                 !- Shading Calculation Update Frequency Method
    30,                       !- Shading Calculation Update Frequency
    15000;                    !- Maximum Figures in Shadow Overlap Calculations

SurfaceConvectionAlgorithm:Inside,
    TARP;                     !- Algorithm

SurfaceConvectionAlgorithm:Outside,
    TARP;                     !- Algorithm

HeatBalanceAlgorithm,
    ConductionTransferFunction,    !- Algorithm
    200;                      !- Surface Temperature Upper Limit

Timestep,
    6;                        !- Number of Timesteps per Hour

ConvergenceLimits,
    1,                        !- Minimum System Timestep
    20;                       !- Maximum HVAC Iterations

Site:Location,
    New.York-John.F.Kennedy.Intl.AP_NY_USA WMO=744860,    !- Name
    40.66,                    !- Latitude
    -73.8,                    !- Longitude
    -5,                       !- Time Zone
    7;                        !- Elevation

SizingPeriod:DesignDay,
    New.York-John.F.Kennedy.Intl.AP_NY_USA Ann Htg 99.6% Condns DB,    !- Name
    1,                        !- Month
    21,                       !- Day of Month
    WinterDesignDay,          !- Day Type
    -10.7,                    !- Maximum DryBulb Temperature
    0,                        !- Daily DryBulb Temperature Range
    DefaultMultipliers,       !- DryBulb Temperature Range Modifier Type
    ,                         !- DryBulb Temperature Range Modifier Day Schedule Name
    Wetbulb,                  !- Humidity Condition Type
    -10.7,                    !- Wetbulb or DewPoint at Maximum DryBulb
    ,                         !- Humidity Condition Day Schedule Name
    ,                         !- Humidity Ratio at Maximum DryBulb
    ,                         !- Enthalpy at Maximum DryBulb
    ,                         !- Daily WetBulb Temperature Range
    101241,                   !- Barometric Pressure
    7.5,                      !- Wind Speed
    320,                      !- Wind Direction
    No,                       !- Rain Indicator
    No,                       !- Snow Indicator
    No,                       !- Daylight Saving Time Indicator
    ASHRAEClearSky,           !- Solar Model Indicator
    ,                         !- Beam Solar Day Schedule Name
    ,                         !- Diffuse Solar Day Schedule Name
    ,                         !- ASHRAE Clear Sky Optical Depth for Beam Irradiance taub
    ,                         !- ASHRAE Clear Sky Optical Depth for Diffuse Irradiance taud
    0;                        !- Sky Clearness

SizingPeriod:DesignDay,
    New.York-John.F.Kennedy.Intl.AP_NY_USA Ann Clg .4% Condns DB=>MWB,    !- Name
    7,                        !- Month
    21,                       !- Day of Month
    SummerDesignDay,          !- Day Type
    32.1,                     !- Maximum DryBulb Temperature
    7.4,                      !- Daily DryBulb Temperature Range
    DefaultMultipliers,       !- DryBulb Temperature Range Modifier Type
    ,                         !- DryBulb Temperature Range Modifier Day Schedule Name
    Wetbulb,                  !- Humidity Condition Type
    23.1,                     !- Wetbulb or DewPoint at Maximum DryBulb
    ,                         !- Humidity Condition Day Schedule Name
    ,                         !- Humidity Ratio at Maximum DryBulb
    ,                         !- Enthalpy at Maximum DryBulb
    ,                         !- Daily WetBulb Temperature Range
    101241,                   !- Barometric Pressure
    5.6,                      !- Wind Speed
    230,                      !- Wind Direction
    No,                       !- Rain Indicator
    No,                       !- Snow Indicator
    No,                       !- Daylight Saving Time Indicator
    ASHRAETau,                !- Solar Model Indicator
    ,                         !- Beam Solar Day Schedule Name
    ,                         !- Diffuse Solar Day Schedule Name
    0.541,                    !- ASHRAE Clear Sky Optical Depth for Beam Irradiance taub
    1.8;                      !- ASHRAE Clear Sky Optical Depth for Diffuse Irradiance taud

RunPeriod,
    RUNPERIOD 1,              !- Name
    1,                        !- Begin Month
    1,                        !- Begin Day of Month
    ,                         !- Begin Year
    12,                       !- End Month
    31,                       !- End Day of Month
    ,                         !- End Year
    Sunday,                   !- Day of Week for Start Day
    No,                       !- Use Weather File Holidays and Special Days
    No,                       !- Use Weather File Daylight Saving Period
    No,                       !- Apply Weekend Holiday Rule
    Yes,                      !- Use Weather File Rain Indicators
    Yes;                      !- Use Weather File Snow Indicators

RunPeriodControl:SpecialDays,
    New Years Day,            !- Name
    January 1,                !- Start Date
    1,                        !- Duration
    Holiday;                  !- Special Day Type

RunPeriodControl:SpecialDays,
    Veterans Day,             !- Name
    November 11,              !- Start Date
    1,                        !- Duration
    Holiday;                  !- Special Day Type

RunPeriodControl:SpecialDays,
    Christmas,                !- Name
    December 25,              !- Start Date
    1,                        !- Duration
    Holiday;                  !- Special Day Type

RunPeriodControl:SpecialDays,
    Independence Day,         !- Name
    July 4,                   !- Start Date
    1,                        !- Duration
    Holiday;                  !- Special Day Type

RunPeriodControl:SpecialDays,
    MLK Day,                  !- Name
    3rd Monday in January,    !- Start Date
    1,                        !- Duration
    Holiday;                  !- Special Day Type

RunPeriodControl:SpecialDays,
    Presidents Day,           !- Name
    3rd Monday in February,    !- Start Date
    1,                        !- Duration
    Holiday;                  !- Special Day Type

RunPeriodControl:SpecialDays,
    Memorial Day,             !- Name
    Last Monday in May,       !- Start Date
    1,                        !- Duration
    Holiday;                  !- Special Day Type

RunPeriodControl:SpecialDays,
    Labor Day,                !- Name
    1st Monday in September,    !- Start Date
    1,                        !- Duration
    Holiday;                  !- Special Day Type

RunPeriodControl:SpecialDays,
    Columbus Day,             !- Name
    2nd Monday in October,    !- Start Date
    1,                        !- Duration
    Holiday;                  !- Special Day Type

RunPeriodControl:SpecialDays,
    Thanksgiving,             !- Name
    4th Thursday in November,    !- Start Date
    1,                        !- Duration
    Holiday;                  !- Special Day Type

RunPeriodControl:DaylightSavingTime,
    2nd Sunday in March,      !- Start Date
    1st Sunday in November;    !- End Date

Site:GroundTemperature:FCfactorMethod,
    14,                       !- January Ground Temperature
    7.3,                      !- February Ground Temperature
    3.3,                      !- March Ground Temperature
    1.2,                      !- April Ground Temperature
    -0.2,                     !- May Ground Temperature
    5.6,                      !- June Ground Temperature
    10.9,                     !- July Ground Temperature
    16.1,                     !- August Ground Temperature
    21.7,                     !- September Ground Temperature
    25,                       !- October Ground Temperature
    24.8,                     !- November Ground Temperature
    19.9;                     !- December Ground Temperature

Site:WaterMainsTemperature,
    Correlation,              !- Calculation Method
    ,                         !- Temperature Schedule Name
    12.4666666666667,         !- Annual Average Outdoor Air Temperature
    25.2;                     !- Maximum Difference In Monthly Average Outdoor Air Temperatures

ScheduleTypeLimits,
    Any Number;               !- Name

ScheduleTypeLimits,
    Fraction,                 !- Name
    0,                        !- Lower Limit Value
    1,                        !- Upper Limit Value
    CONTINUOUS;               !- Numeric Type

ScheduleTypeLimits,
    Temperature,              !- Name
    -60,                      !- Lower Limit Value
    200,                      !- Upper Limit Value
    CONTINUOUS;               !- Numeric Type

ScheduleTypeLimits,
    On/Off,                   !- Name
    0,                        !- Lower Limit Value
    1,                        !- Upper Limit Value
    DISCRETE;                 !- Numeric Type

ScheduleTypeLimits,
    Control Type,             !- Name
    0,                        !- Lower Limit Value
    4,                        !- Upper Limit Value
    DISCRETE;                 !- Numeric Type

ScheduleTypeLimits,
    Humidity,                 !- Name
    10,                       !- Lower Limit Value
    90,                       !- Upper Limit Value
    CONTINUOUS;               !- Numeric Type

ScheduleTypeLimits,
    Number;                   !- Name

SCHEDULETYPELIMITS,
    AHU Setpoint Manager 0 Type Limits,    !- Name
    0,                        !- Lower Limit Value
    100,                      !- Upper Limit Value
    Continuous,               !- Numeric Type
    Temperature;              !- Unit Type

SCHEDULETYPELIMITS,
    Chilled Water Temp Type Limits,    !- Name
    0,                        !- Lower Limit Value
    100,                      !- Upper Limit Value
    Continuous,               !- Numeric Type
    Temperature;              !- Unit Type

SCHEDULETYPELIMITS,
    Hot Water Temperature Type Limits,    !- Name
    0,                        !- Lower Limit Value
    100,                      !- Upper Limit Value
    Continuous,               !- Numeric Type
    Temperature;              !- Unit Type

SCHEDULE:DAY:INTERVAL,
    AHU Setpoint Manager 0 Day Schedule,    !- Name
    AHU Setpoint Manager 0 Type Limits,    !- Schedule Type Limits Name
    No,                       !- Interpolate to Timestep
    24:00,                    !- Time 1
    12.8;                     !- Value Until Time 1

SCHEDULE:DAY:INTERVAL,
    Chilled Water Temp Day Schedule,    !- Name
    Chilled Water Temp Type Limits,    !- Schedule Type Limits Name
    No,                       !- Interpolate to Timestep
    24:00,                    !- Time 1
    7;                        !- Value Until Time 1

SCHEDULE:DAY:INTERVAL,
    Hot Water Temperature Day Schedule,    !- Name
    Hot Water Temperature Type Limits,    !- Schedule Type Limits Name
    No,                       !- Interpolate to Timestep
    24:00,                    !- Time 1
    60;                       !- Value Until Time 1

SCHEDULE:WEEK:DAILY,
    AHU Setpoint Manager 0 Week Schedule,    !- Name
    AHU Setpoint Manager 0 Day Schedule,    !- Sunday ScheduleDay Name
    AHU Setpoint Manager 0 Day Schedule,    !- Monday ScheduleDay Name
    AHU Setpoint Manager 0 Day Schedule,    !- Tuesday ScheduleDay Name
    AHU Setpoint Manager 0 Day Schedule,    !- Wednesday ScheduleDay Name
    AHU Setpoint Manager 0 Day Schedule,    !- Thursday ScheduleDay Name
    AHU Setpoint Manager 0 Day Schedule,    !- Friday ScheduleDay Name
    AHU Setpoint Manager 0 Day Schedule,    !- Saturday ScheduleDay Name
    AHU Setpoint Manager 0 Day Schedule,    !- Holiday ScheduleDay Name
    AHU Setpoint Manager 0 Day Schedule,    !- SummerDesignDay ScheduleDay Name
    AHU Setpoint Manager 0 Day Schedule,    !- WinterDesignDay ScheduleDay Name
    AHU Setpoint Manager 0 Day Schedule,    !- CustomDay1 ScheduleDay Name
    AHU Setpoint Manager 0 Day Schedule;    !- CustomDay2 ScheduleDay Name

SCHEDULE:WEEK:DAILY,
    Chilled Water Temp Week Schedule,    !- Name
    Chilled Water Temp Day Schedule,    !- Sunday ScheduleDay Name
    Chilled Water Temp Day Schedule,    !- Monday ScheduleDay Name
    Chilled Water Temp Day Schedule,    !- Tuesday ScheduleDay Name
    Chilled Water Temp Day Schedule,    !- Wednesday ScheduleDay Name
    Chilled Water Temp Day Schedule,    !- Thursday ScheduleDay Name
    Chilled Water Temp Day Schedule,    !- Friday ScheduleDay Name
    Chilled Water Temp Day Schedule,    !- Saturday ScheduleDay Name
    Chilled Water Temp Day Schedule,    !- Holiday ScheduleDay Name
    Chilled Water Temp Day Schedule,    !- SummerDesignDay ScheduleDay Name
    Chilled Water Temp Day Schedule,    !- WinterDesignDay ScheduleDay Name
    Chilled Water Temp Day Schedule,    !- CustomDay1 ScheduleDay Name
    Chilled Water Temp Day Schedule;    !- CustomDay2 ScheduleDay Name

SCHEDULE:WEEK:DAILY,
    Hot Water Temperature Week Schedule,    !- Name
    Hot Water Temperature Day Schedule,    !- Sunday ScheduleDay Name
    Hot Water Temperature Day Schedule,    !- Monday ScheduleDay Name
    Hot Water Temperature Day Schedule,    !- Tuesday ScheduleDay Name
    Hot Water Temperature Day Schedule,    !- Wednesday ScheduleDay Name
    Hot Water Temperature Day Schedule,    !- Thursday ScheduleDay Name
    Hot Water Temperature Day Schedule,    !- Friday ScheduleDay Name
    Hot Water Temperature Day Schedule,    !- Saturday ScheduleDay Name
    Hot Water Temperature Day Schedule,    !- Holiday ScheduleDay Name
    Hot Water Temperature Day Schedule,    !- SummerDesignDay ScheduleDay Name
    Hot Water Temperature Day Schedule,    !- WinterDesignDay ScheduleDay Name
    Hot Water Temperature Day Schedule,    !- CustomDay1 ScheduleDay Name
    Hot Water Temperature Day Schedule;    !- CustomDay2 ScheduleDay Name

SCHEDULE:YEAR,
    AHU Setpoint Manager 0,    !- Name
    AHU Setpoint Manager 0 Type Limits,    !- Schedule Type Limits Name
    AHU Setpoint Manager 0 Week Schedule,    !- ScheduleWeek Name 1
    1,                        !- Start Month 1
    1,                        !- Start Day 1
    12,                       !- End Month 1
    31;                       !- End Day 1

SCHEDULE:YEAR,
    Chilled Water Temp,       !- Name
    Chilled Water Temp Type Limits,    !- Schedule Type Limits Name
    Chilled Water Temp Week Schedule,    !- ScheduleWeek Name 1
    1,                        !- Start Month 1
    1,                        !- Start Day 1
    12,                       !- End Month 1
    31;                       !- End Day 1

SCHEDULE:YEAR,
    Hot Water Temperature,    !- Name
    Hot Water Temperature Type Limits,    !- Schedule Type Limits Name
    Hot Water Temperature Week Schedule,    !- ScheduleWeek Name 1
    1,                        !- Start Month 1
    1,                        !- Start Day 1
    12,                       !- End Month 1
    31;                       !- End Day 1

Schedule:Compact,
    PV_SCH,                   !- Name
    Fraction,                 !- Schedule Type Limits Name
    Through: 12/31,           !- Field 1
    For: AllDays,             !- Field 2
    Until: 24:00,             !- Field 3
    1;                        !- Field 4

Schedule:Compact,
    Type1_OCC_SCH,            !- Name
    Fraction,                 !- Schedule Type Limits Name
    Through: 12/31,           !- Field 1
    For: Monday Tuesday Wednesday Thursday,    !- Field 2
    Until: 08:00,             !- Field 3
    0.0,                      !- Field 4
    Until: 10:00,             !- Field 5
    0.05,                     !- Field 6
    Until: 12:00,             !- Field 7
    0.1,                      !- Field 8
    Until: 13:00,             !- Field 9
    0.2,                      !- Field 10
    Until: 15:00,             !- Field 11
    0.4,                      !- Field 12
    Until: 17:00,             !- Field 13
    0.25,                     !- Field 14
    Until: 20:00,             !- Field 15
    0.50,                     !- Field 16
    Until: 23:00,             !- Field 17
    0.3,                      !- Field 18
    Until: 24:00,             !- Field 19
    0.05,                     !- Field 20
    For: SummerDesignDay,     !- Field 21
    Until: 24:00,             !- Field 22
    1.0,                      !- Field 23
    For: Friday Saturday,     !- Field 24
    Until: 01:00,             !- Field 25
    0.05,                     !- Field 26
    Until: 09:00,             !- Field 27
    0.0,                      !- Field 28
    Until: 10:00,             !- Field 29
    0.05,                     !- Field 30
    Until: 12:00,             !- Field 31
    0.1,                      !- Field 32
    Until: 13:00,             !- Field 33
    0.2,                      !- Field 34
    Until: 14:00,             !- Field 35
    0.6,                      !- Field 36
    Until: 15:00,             !- Field 37
    0.4,                      !- Field 38
    Until: 17:00,             !- Field 39
    0.25,                     !- Field 40
    Until: 20:00,             !- Field 41
    0.5,                      !- Field 42
    Until: 23:00,             !- Field 43
    0.3,                      !- Field 44
    Until: 24:00,             !- Field 45
    0.2,                      !- Field 46
    For: WinterDesignDay,     !- Field 47
    Until: 24:00,             !- Field 48
    0.0,                      !- Field 49
    For: Sunday Holidays AllOtherDays,    !- Field 50
    Until: 08:00,             !- Field 51
    0.0,                      !- Field 52
    Until: 10:00,             !- Field 53
    0.05,                     !- Field 54
    Until: 11:00,             !- Field 55
    0.1,                      !- Field 56
    Until: 12:00,             !- Field 57
    0.2,                      !- Field 58
    Until: 13:00,             !- Field 59
    0.4,                      !- Field 60
    Until: 14:00,             !- Field 61
    0.6,                      !- Field 62
    Until: 16:00,             !- Field 63
    0.4,                      !- Field 64
    Until: 17:00,             !- Field 65
    0.3,                      !- Field 66
    Until: 19:00,             !- Field 67
    0.6,                      !- Field 68
    Until: 21:00,             !- Field 69
    0.4,                      !- Field 70
    Until: 22:00,             !- Field 71
    0.3,                      !- Field 72
    Until: 23:00,             !- Field 73
    0.2,                      !- Field 74
    Until: 24:00,             !- Field 75
    0.05;                     !- Field 76

Schedule:Compact,
    Type2_OCC_SCH,            !- Name
    Fraction,                 !- Schedule Type Limits Name
    Through: 12/31,           !- Field 1
    For: Weekdays,            !- Field 2
    Until: 08:00,             !- Field 3
    0.0,                      !- Field 4
    Until: 09:00,             !- Field 5
    0.05,                     !- Field 6
    Until: 12:00,             !- Field 7
    0.1,                      !- Field 8
    Until: 13:00,             !- Field 9
    0.2,                      !- Field 10
    Until: 14:00,             !- Field 11
    0.4,                      !- Field 12
    Until: 15:00,             !- Field 13
    0.30,                     !- Field 14
    Until: 17:00,             !- Field 15
    0.20,                     !- Field 16
    Until: 19:00,             !- Field 17
    0.5,                      !- Field 18
    Until: 20:00,             !- Field 19
    0.2,                      !- Field 20
    Until: 21:00,             !- Field 21
    0.05,                     !- Field 22
    Until: 24:00,             !- Field 23
    0.00,                     !- Field 24
    For: SummerDesignDay,     !- Field 25
    Until: 24:00,             !- Field 26
    1.0,                      !- Field 27
    For: Saturday,            !- Field 28
    Until: 08:00,             !- Field 29
    0.0,                      !- Field 30
    Until: 09:00,             !- Field 31
    0.05,                     !- Field 32
    Until: 11:00,             !- Field 33
    0.1,                      !- Field 34
    Until: 12:00,             !- Field 35
    0.2,                      !- Field 36
    Until: 13:00,             !- Field 37
    0.4,                      !- Field 38
    Until: 14:00,             !- Field 39
    0.6,                      !- Field 40
    Until: 15:00,             !- Field 41
    0.4,                      !- Field 42
    Until: 18:00,             !- Field 43
    0.3,                      !- Field 44
    Until: 19:00,             !- Field 45
    0.05,                     !- Field 46
    Until: 24:00,             !- Field 47
    0.0,                      !- Field 48
    For: WinterDesignDay,     !- Field 49
    Until: 24:00,             !- Field 50
    0.0,                      !- Field 51
    For: Sunday Holidays AllOtherDays,    !- Field 52
    Until: 09:00,             !- Field 53
    0.0,                      !- Field 54
    Until: 10:00,             !- Field 55
    0.05,                     !- Field 56
    Until: 11:00,             !- Field 57
    0.1,                      !- Field 58
    Until: 12:00,             !- Field 59
    0.2,                      !- Field 60
    Until: 14:00,             !- Field 61
    0.4,                      !- Field 62
    Until: 15:00,             !- Field 63
    0.3,                      !- Field 64
    Until: 16:00,             !- Field 65
    0.2,                      !- Field 66
    Until: 17:00,             !- Field 67
    0.1,                      !- Field 68
    Until: 18:00,             !- Field 69
    0.05,                     !- Field 70
    Until: 24:00,             !- Field 71
    0.0;                      !- Field 72

Schedule:Compact,
    Type3_OCC_SCH,            !- Name
    Fraction,                 !- Schedule Type Limits Name
    Through: 12/31,           !- Field 1
    For: Weekdays,            !- Field 2
    Until: 09:00,             !- Field 3
    0.0,                      !- Field 4
    Until: 10:00,             !- Field 5
    0.11,                     !- Field 6
    Until: 11:00,             !- Field 7
    0.11,                     !- Field 8
    Until: 12:00,             !- Field 9
    0.43,                     !- Field 10
    Until: 13:00,             !- Field 11
    0.46,                     !- Field 12
    Until: 14:00,             !- Field 13
    0.71,                     !- Field 14
    Until: 15:00,             !- Field 15
    0.50,                     !- Field 16
    Until: 16:00,             !- Field 17
    0.69,                     !- Field 18
    Until: 17:00,             !- Field 19
    0.54,                     !- Field 20
    Until: 18:00,             !- Field 21
    0.71,                     !- Field 22
    Until: 19:00,             !- Field 23
    0.34,                     !- Field 24
    Until: 20:00,             !- Field 25
    0.26,                     !- Field 26
    Until: 21:00,             !- Field 27
    0.11,                     !- Field 28
    Until: 24:00,             !- Field 29
    0.00,                     !- Field 30
    For: SummerDesignDay,     !- Field 31
    Until: 24:00,             !- Field 32
    1.0,                      !- Field 33
    For: Saturday,            !- Field 34
    Until: 09:00,             !- Field 35
    0.0,                      !- Field 36
    Until: 10:00,             !- Field 37
    0.11,                     !- Field 38
    Until: 11:00,             !- Field 39
    0.11,                     !- Field 40
    Until: 12:00,             !- Field 41
    0.58,                     !- Field 42
    Until: 13:00,             !- Field 43
    0.71,                     !- Field 44
    Until: 14:00,             !- Field 45
    0.74,                     !- Field 46
    Until: 15:00,             !- Field 47
    0.77,                     !- Field 48
    Until: 16:00,             !- Field 49
    0.80,                     !- Field 50
    Until: 17:00,             !- Field 51
    0.74,                     !- Field 52
    Until: 18:00,             !- Field 53
    0.54,                     !- Field 54
    Until: 19:00,             !- Field 55
    0.11,                     !- Field 56
    Until: 24:00,             !- Field 57
    0.00,                     !- Field 58
    For: WinterDesignDay,     !- Field 59
    Until: 24:00,             !- Field 60
    0.0,                      !- Field 61
    For: Sunday Holidays AllOtherDays,    !- Field 62
    Until: 10:00,             !- Field 63
    0.0,                      !- Field 64
    Until: 11:00,             !- Field 65
    0.11,                     !- Field 66
    Until: 12:00,             !- Field 67
    0.11,                     !- Field 68
    Until: 13:00,             !- Field 69
    0.43,                     !- Field 70
    Until: 14:00,             !- Field 71
    0.46,                     !- Field 72
    Until: 15:00,             !- Field 73
    0.5,                      !- Field 74
    Until: 16:00,             !- Field 75
    0.69,                     !- Field 76
    Until: 17:00,             !- Field 77
    0.34,                     !- Field 78
    Until: 18:00,             !- Field 79
    0.11,                     !- Field 80
    Until: 21:00,             !- Field 81
    0.0,                      !- Field 82
    Until: 23:00,             !- Field 83
    0.0,                      !- Field 84
    Until: 24:00,             !- Field 85
    0.00;                     !- Field 86

SCHEDULE:COMPACT,
    ltg_sch_display_lpd_type1_smstore,    !- Name
    Fraction,                 !- Schedule Type Limits Name
    Through: 12/31,           !- Field 1
    For: SummerDesignDay,     !- Field 2
    Until: 24:00,             !- Field 3
    1,                        !- Field 4
    For: WinterDesignDay,     !- Field 5
    Until: 24:00,             !- Field 6
    0,                        !- Field 7
    For: Weekdays,            !- Field 8
    Until: 9:00,              !- Field 9
    0.05,                     !- Field 10
    Until: 10:00,             !- Field 11
    0.5,                      !- Field 12
    Until: 20:00,             !- Field 13
    0.95,                     !- Field 14
    Until: 21:00,             !- Field 15
    0.5,                      !- Field 16
    Until: 24:00,             !- Field 17
    0.05,                     !- Field 18
    For: Saturday,            !- Field 19
    Until: 9:00,              !- Field 20
    0.05,                     !- Field 21
    Until: 10:00,             !- Field 22
    0.5,                      !- Field 23
    Until: 18:00,             !- Field 24
    0.95,                     !- Field 25
    Until: 19:00,             !- Field 26
    0.5,                      !- Field 27
    Until: 24:00,             !- Field 28
    0.05,                     !- Field 29
    For: AllOtherDays,        !- Field 30
    Until: 10:00,             !- Field 31
    0.05,                     !- Field 32
    Until: 11:00,             !- Field 33
    0.5,                      !- Field 34
    Until: 17:00,             !- Field 35
    0.95,                     !- Field 36
    Until: 18:00,             !- Field 37
    0.5,                      !- Field 38
    Until: 24:00,             !- Field 39
    0.05;                     !- Field 40

SCHEDULE:COMPACT,
    ltg_sch_base_lpd2,        !- Name
    Fraction,                 !- Schedule Type Limits Name
    Through: 12/31,           !- Field 1
    For: SummerDesignDay,     !- Field 2
    Until: 24:00,             !- Field 3
    1,                        !- Field 4
    For: WinterDesignDay,     !- Field 5
    Until: 24:00,             !- Field 6
    0,                        !- Field 7
    For: Weekdays,            !- Field 8
    Until: 9:00,              !- Field 9
    0.036985404421875,        !- Field 10
    Until: 10:00,             !- Field 11
    0.36982055053125,         !- Field 12
    Until: 20:00,             !- Field 13
    0.702655696640625,        !- Field 14
    Until: 21:00,             !- Field 15
    0.36982055053125,         !- Field 16
    Until: 24:00,             !- Field 17
    0.036985404421875,        !- Field 18
    For: Saturday,            !- Field 19
    Until: 9:00,              !- Field 20
    0.036985404421875,        !- Field 21
    Until: 10:00,             !- Field 22
    0.36982055053125,         !- Field 23
    Until: 18:00,             !- Field 24
    0.702655696640625,        !- Field 25
    Until: 19:00,             !- Field 26
    0.36982055053125,         !- Field 27
    Until: 24:00,             !- Field 28
    0.036985404421875,        !- Field 29
    For: AllOtherDays,        !- Field 30
    Until: 10:00,             !- Field 31
    0.036985404421875,        !- Field 32
    Until: 11:00,             !- Field 33
    0.36982055053125,         !- Field 34
    Until: 17:00,             !- Field 35
    0.702655696640625,        !- Field 36
    Until: 18:00,             !- Field 37