!- Windows Line endings 

Version,
    24.2;                     !- Version Identifier

SimulationControl,
    Yes,                      !- Do Zone Sizing Calculation
    Yes,                      !- Do System Sizing Calculation
    Yes,                      !- Do Plant Sizing Calculation
    No,                       !- Run Simulation for Sizing Periods
    Yes,                      !- Run Simulation for Weather File Run Periods
    No,                       !- Do HVAC Sizing Simulation for Sizing Periods
    1;                        !- Maximum Number of HVAC Sizing Simulation Passes

Building,
    SchoolSecondary,          !- Name
    0,                        !- North Axis
    City,                     !- Terrain
    0.04,                     !- Loads Convergence Tolerance Value
    0.2,                      !- Temperature Convergence Tolerance Value
    FullInteriorAndExterior,    !- Solar Distribution
    25,                       !- Maximum Number of Warmup Days
    6;                        !- Minimum Number of Warmup Days

ShadowCalculation,
    PolygonClipping,          !- Shading Calculation Method
    Periodic,                 !- Shading Calculation Update Frequency Method
    30,                       !- Shading Calculation Update Frequency
    15000;                    !- Maximum Figures in Shadow Overlap Calculations

SurfaceConvectionAlgorithm:Inside,
    TARP;                     !- Algorithm

SurfaceConvectionAlgorithm:Outside,
    TARP;                     !- Algorithm

HeatBalanceAlgorithm,
    ConductionTransferFunction,    !- Algorithm
    200;                      !- Surface Temperature Upper Limit

Timestep,
    6;                        !- Number of Timesteps per Hour

ConvergenceLimits,
    1,                        !- Minimum System Timestep
    20;                       !- Maximum HVAC Iterations

Site:Location,
    New.York-John.F.Kennedy.Intl.AP_NY_USA WMO=744860,    !- Name
    40.66,                    !- Latitude
    -73.8,                    !- Longitude
    -5,                       !- Time Zone
    7;                        !- Elevation

SizingPeriod:DesignDay,
    New.York-John.F.Kennedy.Intl.AP_NY_USA Ann Htg 99.6% Condns DB,    !- Name
    1,                        !- Month
    21,                       !- Day of Month
    WinterDesignDay,          !- Day Type
    -10.7,                    !- Maximum DryBulb Temperature
    0,                        !- Daily DryBulb Temperature Range
    DefaultMultipliers,       !- DryBulb Temperature Range Modifier Type
    ,                         !- DryBulb Temperature Range Modifier Day Schedule Name
    Wetbulb,                  !- Humidity Condition Type
    -10.7,                    !- Wetbulb or DewPoint at Maximum DryBulb
    ,                         !- Humidity Condition Day Schedule Name
    ,                         !- Humidity Ratio at Maximum DryBulb
    ,                         !- Enthalpy at Maximum DryBulb
    ,                         !- Daily WetBulb Temperature Range
    101241,                   !- Barometric Pressure
    7.5,                      !- Wind Speed
    320,                      !- Wind Direction
    No,                       !- Rain Indicator
    No,                       !- Snow Indicator
    No,                       !- Daylight Saving Time Indicator
    ASHRAEClearSky,           !- Solar Model Indicator
    ,                         !- Beam Solar Day Schedule Name
    ,                         !- Diffuse Solar Day Schedule Name
    ,                         !- ASHRAE Clear Sky Optical Depth for Beam Irradiance taub
    ,                         !- ASHRAE Clear Sky Optical Depth for Diffuse Irradiance taud
    0;                        !- Sky Clearness

SizingPeriod:DesignDay,
    New.York-John.F.Kennedy.Intl.AP_NY_USA Ann Clg .4% Condns DB=>MWB,    !- Name
    7,                        !- Month
    21,                       !- Day of Month
    SummerDesignDay,          !- Day Type
    32.1,                     !- Maximum DryBulb Temperature
    7.4,                      !- Daily DryBulb Temperature Range
    DefaultMultipliers,       !- DryBulb Temperature Range Modifier Type
    ,                         !- DryBulb Temperature Range Modifier Day Schedule Name
    Wetbulb,                  !- Humidity Condition Type
    23.1,                     !- Wetbulb or DewPoint at Maximum DryBulb
    ,                         !- Humidity Condition Day Schedule Name
    ,                         !- Humidity Ratio at Maximum DryBulb
    ,                         !- Enthalpy at Maximum DryBulb
    ,                         !- Daily WetBulb Temperature Range
    101241,                   !- Barometric Pressure
    5.6,                      !- Wind Speed
    230,                      !- Wind Direction
    No,                       !- Rain Indicator
    No,                       !- Snow Indicator
    No,                       !- Daylight Saving Time Indicator
    ASHRAETau,                !- Solar Model Indicator
    ,                         !- Beam Solar Day Schedule Name
    ,                         !- Diffuse Solar Day Schedule Name
    0.541,                    !- ASHRAE Clear Sky Optical Depth for Beam Irradiance taub
    1.8;                      !- ASHRAE Clear Sky Optical Depth for Diffuse Irradiance taud

RunPeriod,
    RUNPERIOD 1,              !- Name
    1,                        !- Begin Month
    1,                        !- Begin Day of Month
    ,                         !- Begin Year
    12,                       !- End Month
    31,                       !- End Day of Month
    ,                         !- End Year
    Sunday,                   !- Day of Week for Start Day
    No,                       !- Use Weather File Holidays and Special Days
    No,                       !- Use Weather File Daylight Saving Period
    No,                       !- Apply Weekend Holiday Rule
    Yes,                      !- Use Weather File Rain Indicators
    Yes;                      !- Use Weather File Snow Indicators

RunPeriodControl:SpecialDays,
    New Years Day,            !- Name
    January 1,                !- Start Date
    1,                        !- Duration
    Holiday;                  !- Special Day Type

RunPeriodControl:SpecialDays,
    Veterans Day,             !- Name
    November 11,              !- Start Date
    1,                        !- Duration
    Holiday;                  !- Special Day Type

RunPeriodControl:SpecialDays,
    Christmas,                !- Name
    December 25,              !- Start Date
    1,                        !- Duration
    Holiday;                  !- Special Day Type

RunPeriodControl:SpecialDays,
    Independence Day,         !- Name
    July 4,                   !- Start Date
    1,                        !- Duration
    Holiday;                  !- Special Day Type

RunPeriodControl:SpecialDays,
    MLK Day,                  !- Name
    3rd Monday in January,    !- Start Date
    1,                        !- Duration
    Holiday;                  !- Special Day Type

RunPeriodControl:SpecialDays,
    Presidents Day,           !- Name
    3rd Monday in February,    !- Start Date
    1,                        !- Duration
    Holiday;                  !- Special Day Type

RunPeriodControl:SpecialDays,
    Memorial Day,             !- Name
    Last Monday in May,       !- Start Date
    1,                        !- Duration
    Holiday;                  !- Special Day Type

RunPeriodControl:SpecialDays,
    Labor Day,                !- Name
    1st Monday in September,    !- Start Date
    1,                        !- Duration
    Holiday;                  !- Special Day Type

RunPeriodControl:SpecialDays,
    Columbus Day,             !- Name
    2nd Monday in October,    !- Start Date
    1,                        !- Duration
    Holiday;                  !- Special Day Type

RunPeriodControl:SpecialDays,
    Thanksgiving,             !- Name
    4th Thursday in November,    !- Start Date
    1,                        !- Duration
    Holiday;                  !- Special Day Type

RunPeriodControl:DaylightSavingTime,
    2nd Sunday in March,      !- Start Date
    1st Sunday in November;    !- End Date

Site:GroundTemperature:FCfactorMethod,
    14,                       !- January Ground Temperature
    7.3,                      !- February Ground Temperature
    3.3,                      !- March Ground Temperature
    1.2,                      !- April Ground Temperature
    -0.2,                     !- May Ground Temperature
    5.6,                      !- June Ground Temperature
    10.9,                     !- July Ground Temperature
    16.1,                     !- August Ground Temperature
    21.7,                     !- September Ground Temperature
    25,                       !- October Ground Temperature
    24.8,                     !- November Ground Temperature
    19.9;                     !- December Ground Temperature

Site:WaterMainsTemperature,
    CORRELATION,              !- Calculation Method
    ,                         !- Temperature Schedule Name
    12.4666666666667,         !- Annual Average Outdoor Air Temperature
    25.2;                     !- Maximum Difference In Monthly Average Outdoor Air Temperatures

ScheduleTypeLimits,
    Any Number;               !- Name

ScheduleTypeLimits,
    Fraction,                 !- Name
    0,                        !- Lower Limit Value
    1,                        !- Upper Limit Value
    CONTINUOUS;               !- Numeric Type

ScheduleTypeLimits,
    Temperature,              !- Name
    -60,                      !- Lower Limit Value
    200,                      !- Upper Limit Value
    CONTINUOUS;               !- Numeric Type

ScheduleTypeLimits,
    On/Off,                   !- Name
    0,                        !- Lower Limit Value
    1,                        !- Upper Limit Value
    DISCRETE;                 !- Numeric Type

ScheduleTypeLimits,
    Control Type,             !- Name
    0,                        !- Lower Limit Value
    4,                        !- Upper Limit Value
    DISCRETE;                 !- Numeric Type

ScheduleTypeLimits,
    Humidity,                 !- Name
    10,                       !- Lower Limit Value
    90,                       !- Upper Limit Value
    CONTINUOUS;               !- Numeric Type

ScheduleTypeLimits,
    Number;                   !- Name

Schedule:Compact,
    PV_SCH,                   !- Name
    Fraction,                 !- Schedule Type Limits Name
    Through: 12/31,           !- Field 1
    For: AllDays,             !- Field 2
    Until: 24:00,             !- Field 3
    1;                        !- Field 4

SCHEDULE:COMPACT,
    ltg_sch_gym,              !- Name
    Fraction,                 !- Schedule Type Limits Name
    Through: 6/30,            !- Field 1
    For: SummerDesignDay,     !- Field 2
    Until: 24:00,             !- Field 3
    1,                        !- Field 4
    For: WinterDesignDay,     !- Field 5
    Until: 24:00,             !- Field 6
    0,                        !- Field 7
    For: Weekdays,            !- Field 8
    Until: 7:00,              !- Field 9
    0.1196784,                !- Field 10
    Until: 21:00,             !- Field 11
    0.6075,                   !- Field 12
    Until: 24:00,             !- Field 13
    0.1196784,                !- Field 14
    For: Saturday,            !- Field 15
    Until: 24:00,             !- Field 16
    0.1196784,                !- Field 17
    For: AllOtherDays,        !- Field 18
    Until: 24:00,             !- Field 19
    0.1196784,                !- Field 20
    Through: 9/1,             !- Field 21
    For: SummerDesignDay,     !- Field 22
    Until: 24:00,             !- Field 23
    1,                        !- Field 24
    For: WinterDesignDay,     !- Field 25
    Until: 24:00,             !- Field 26
    0,                        !- Field 27
    For: Weekdays,            !- Field 28
    Until: 8:00,              !- Field 29
    0.1196784,                !- Field 30
    Until: 20:00,             !- Field 31
    0.3375,                   !- Field 32
    Until: 24:00,             !- Field 33
    0.1196784,                !- Field 34
    For: Saturday,            !- Field 35
    Until: 24:00,             !- Field 36
    0.1196784,                !- Field 37
    For: AllOtherDays,        !- Field 38
    Until: 24:00,             !- Field 39
    0.1196784,                !- Field 40
    Through: 12/31,           !- Field 41
    For: SummerDesignDay,     !- Field 42
    Until: 24:00,             !- Field 43
    1,                        !- Field 44
    For: WinterDesignDay,     !- Field 45
    Until: 24:00,             !- Field 46
    0,                        !- Field 47
    For: Weekdays,            !- Field 48
    Until: 7:00,              !- Field 49
    0.1196784,                !- Field 50
    Until: 21:00,             !- Field 51
    0.6075,                   !- Field 52
    Until: 24:00,             !- Field 53
    0.1196784,                !- Field 54
    For: Saturday,            !- Field 55
    Until: 24:00,             !- Field 56
    0.1196784,                !- Field 57
    For: AllOtherDays,        !- Field 58
    Until: 24:00,             !- Field 59
    0.1196784;                !- Field 60

SCHEDULE:COMPACT,
    ltg_sch_classroom,        !- Name
    Fraction,                 !- Schedule Type Limits Name
    Through: 6/30,            !- Field 1
    For: SummerDesignDay,     !- Field 2
    Until: 24:00,             !- Field 3
    1,                        !- Field 4
    For: WinterDesignDay,     !- Field 5
    Until: 24:00,             !- Field 6
    0,                        !- Field 7
    For: Weekdays,            !- Field 8
    Until: 7:00,              !- Field 9
    0.12012,                  !- Field 10
    Until: 21:00,             !- Field 11
    0.60975,                  !- Field 12
    Until: 24:00,             !- Field 13
    0.12012,                  !- Field 14
    For: Saturday,            !- Field 15
    Until: 24:00,             !- Field 16
    0.12012,                  !- Field 17
    For: AllOtherDays,        !- Field 18
    Until: 24:00,             !- Field 19
    0.12012,                  !- Field 20
    Through: 9/1,             !- Field 21
    For: SummerDesignDay,     !- Field 22
    Until: 24:00,             !- Field 23
    1,                        !- Field 24
    For: WinterDesignDay,     !- Field 25
    Until: 24:00,             !- Field 26
    0,                        !- Field 27
    For: Weekdays,            !- Field 28
    Until: 8:00,              !- Field 29
    0.12012,                  !- Field 30
    Until: 20:00,             !- Field 31
    0.33875,                  !- Field 32
    Until: 24:00,             !- Field 33
    0.12012,                  !- Field 34
    For: Saturday,            !- Field 35
    Until: 24:00,             !- Field 36
    0.12012,                  !- Field 37
    For: AllOtherDays,        !- Field 38
    Until: 24:00,             !- Field 39
    0.12012,                  !- Field 40
    Through: 12/31,           !- Field 41
    For: SummerDesignDay,     !- Field 42
    Until: 24:00,             !- Field 43
    1,                        !- Field 44
    For: WinterDesignDay,     !- Field 45
    Until: 24:00,             !- Field 46
    0,                        !- Field 47
    For: Weekdays,            !- Field 48
    Until: 7:00,              !- Field 49
    0.12012,                  !- Field 50
    Until: 21:00,             !- Field 51
    0.60975,                  !- Field 52
    Until: 24:00,             !- Field 53
    0.12012,                  !- Field 54
    For: Saturday,            !- Field 55
    Until: 24:00,             !- Field 56
    0.12012,                  !- Field 57
    For: AllOtherDays,        !- Field 58
    Until: 24:00,             !- Field 59
    0.12012;                  !- Field 60

SCHEDULE:COMPACT,
    ltg_sch_library,          !- Name
    Fraction,                 !- Schedule Type Limits Name
    Through: 6/30,            !- Field 1
    For: SummerDesignDay,     !- Field 2
    Until: 24:00,             !- Field 3
    1,                        !- Field 4
    For: WinterDesignDay,     !- Field 5
    Until: 24:00,             !- Field 6
    0,                        !- Field 7
    For: Weekdays,            !- Field 8
    Until: 7:00,              !- Field 9
    0.14709865,               !- Field 10
    Until: 21:00,             !- Field 11
    0.74668585,               !- Field 12
    Until: 24:00,             !- Field 13
    0.14709865,               !- Field 14
    For: Saturday,            !- Field 15
    Until: 24:00,             !- Field 16
    0.14709865,               !- Field 17
    For: AllOtherDays,        !- Field 18
    Until: 24:00,             !- Field 19
    0.14709865,               !- Field 20
    Through: 9/1,             !- Field 21
    For: SummerDesignDay,     !- Field 22
    Until: 24:00,             !- Field 23
    1,                        !- Field 24
    For: WinterDesignDay,     !- Field 25
    Until: 24:00,             !- Field 26
    0,                        !- Field 27
    For: Weekdays,            !- Field 28
    Until: 8:00,              !- Field 29
    0.14709865,               !- Field 30
    Until: 20:00,             !- Field 31
    0.41482335,               !- Field 32
    Until: 24:00,             !- Field 33
    0.14709865,               !- Field 34
    For: Saturday,            !- Field 35
    Until: 24:00,             !- Field 36
    0.14709865,               !- Field 37
    For: AllOtherDays,        !- Field 38
    Until: 24:00,             !- Field 39
    0.14709865,               !- Field 40
    Through: 12/31,           !- Field 41
    For: SummerDesignDay,     !- Field 42
    Until: 24:00,             !- Field 43
    1,                        !- Field 44
    For: WinterDesignDay,     !- Field 45
    Until: 24:00,             !- Field 46
    0,                        !- Field 47
    For: Weekdays,            !- Field 48
    Until: 7:00,              !- Field 49
    0.14709865,               !- Field 50
    Until: 21:00,             !- Field 51
    0.74668585,               !- Field 52
    Until: 24:00,             !- Field 53
    0.14709865,               !- Field 54
    For: Saturday,            !- Field 55
    Until: 24:00,             !- Field 56
    0.14709865,               !- Field 57
    For: AllOtherDays,        !- Field 58
    Until: 24:00,             !- Field 59
    0.14709865;               !- Field 60

SCHEDULE:COMPACT,
    ltg_sch_bath,             !- Name
    Fraction,                 !- Schedule Type Limits Name
    Through: 6/30,            !- Field 1
    For: SummerDesignDay,     !- Field 2
    Until: 24:00,             !- Field 3
    1,                        !- Field 4
    For: WinterDesignDay,     !- Field 5
    Until: 24:00,             !- Field 6
    0,                        !- Field 7
    For: Weekdays,            !- Field 8
    Until: 7:00,              !- Field 9
    0.09752,                  !- Field 10
    Until: 21:00,             !- Field 11
    0.495,                    !- Field 12
    Until: 24:00,             !- Field 13
    0.09752,                  !- Field 14
    For: Saturday,            !- Field 15
    Until: 24:00,             !- Field 16
    0.09752,                  !- Field 17
    For: AllOtherDays,        !- Field 18
    Until: 24:00,             !- Field 19
    0.09752,                  !- Field 20
    Through: 9/1,             !- Field 21
    For: SummerDesignDay,     !- Field 22
    Until: 24:00,             !- Field 23
    1,                        !- Field 24
    For: WinterDesignDay,     !- Field 25
    Until: 24:00,             !- Field 26
    0,                        !- Field 27
    For: Weekdays,            !- Field 28
    Until: 8:00,              !- Field 29
    0.09752,                  !- Field 30
    Until: 20:00,             !- Field 31
    0.275,                    !- Field 32
    Until: 24:00,             !- Field 33
    0.09752,                  !- Field 34
    For: Saturday,            !- Field 35
    Until: 24:00,             !- Field 36
    0.09752,                  !- Field 37
    For: AllOtherDays,        !- Field 38
    Until: 24:00,             !- Field 39
    0.09752,                  !- Field 40
    Through: 12/31,           !- Field 41
    For: SummerDesignDay,     !- Field 42
    Until: 24:00,             !- Field 43
    1,                        !- Field 44
    For: WinterDesignDay,     !- Field 45
    Until: 24:00,             !- Field 46
    0,                        !- Field 47
    For: Weekdays,            !- Field 48
    Until: 7:00,              !- Field 49
    0.09752,                  !- Field 50
    Until: 21:00,             !- Field 51
    0.495,                    !- Field 52
    Until: 24:00,             !- Field 53
    0.09752,                  !- Field 54
    For: Saturday,            !- Field 55
    Until: 24:00,             !- Field 56
    0.09752,                  !- Field 57
    For: AllOtherDays,        !- Field 58
    Until: 24:00,             !- Field 59
    0.09752;                  !- Field 60

SCHEDULE:COMPACT,
    ltg_sch_auditorium,       !- Name
    Fraction,                 !- Schedule Type Limits Name
    Through: 6/30,            !- Field 1
    For: SummerDesignDay,     !- Field 2
    Until: 24:00,             !- Field 3
    1,                        !- Field 4
    For: WinterDesignDay,     !- Field 5
    Until: 24:00,             !- Field 6
    0,                        !- Field 7
    For: Weekdays,            !- Field 8
    Until: 7:00,              !- Field 9
    0.15957,                  !- Field 10
    Until: 21:00,             !- Field 11
    0.81,                     !- Field 12
    Until: 24:00,             !- Field 13
    0.15957,                  !- Field 14
    For: Saturday,            !- Field 15
    Until: 24:00,             !- Field 16
    0.15957,                  !- Field 17
    For: AllOtherDays,        !- Field 18
    Until: 24:00,             !- Field 19
    0.15957,                  !- Field 20
    Through: 9/1,             !- Field 21
    For: SummerDesignDay,     !- Field 22
    Until: 24:00,             !- Field 23
    1,                        !- Field 24
    For: WinterDesignDay,     !- Field 25
    Until: 24:00,             !- Field 26
    0,                        !- Field 27
    For: Weekdays,            !- Field 28
    Until: 8:00,              !- Field 29
    0.15957,                  !- Field 30
    Until: 20:00,             !- Field 31
    0.45,                     !- Field 32
    Until: 24:00,             !- Field 33
    0.15957,                  !- Field 34
    For: Saturday,            !- Field 35
    Until: 24:00,             !- Field 36
    0.15957,                  !- Field 37
    For: AllOtherDays,        !- Field 38
    Until: 24:00,             !- Field 39
    0.15957,                  !- Field 40
    Through: 12/31,           !- Field 41
    For: SummerDesignDay,     !- Field 42
    Until: 24:00,             !- Field 43
    1,                        !- Field 44
    For: WinterDesignDay,     !- Field 45
    Until: 24:00,             !- Field 46
    0,                        !- Field 47
    For: Weekdays,            !- Field 48
    Until: 7:00,              !- Field 49
    0.15957,                  !- Field 50
    Until: 21:00,             !- Field 51
    0.81,                     !- Field 52
    Until: 24:00,             !- Field 53
    0.15957,                  !- Field 54
    For: Saturday,            !- Field 55
    Until: 24:00,             !- Field 56
    0.15957,                  !- Field 57
    For: AllOtherDays,        !- Field 58
    Until: 24:00,             !- Field 59
    0.15957;                  !- Field 60

SCHEDULE:COMPACT,
    ltg_sch_kitchen,          !- Name
    Fraction,                 !- Schedule Type Limits Name
    Through: 6/30,            !- Field 1
    For: SummerDesignDay,     !- Field 2
    Until: 24:00,             !- Field 3
    1,                        !- Field 4
    For: WinterDesignDay,     !- Field 5
    Until: 24:00,             !- Field 6
    0,                        !- Field 7
    For: Weekdays,            !- Field 8
    Until: 7:00,              !- Field 9
    0.12411,                  !- Field 10
    Until: 21:00,             !- Field 11
    0.63,                     !- Field 12
    Until: 24:00,             !- Field 13
    0.12411,                  !- Field 14
    For: Saturday,            !- Field 15
    Until: 24:00,             !- Field 16
    0.12411,                  !- Field 17
    For: AllOtherDays,        !- Field 18
    Until: 24:00,             !- Field 19
    0.12411,                  !- Field 20
    Through: 9/1,             !- Field 21
    For: SummerDesignDay,     !- Field 22
    Until: 24:00,             !- Field 23
    1,                        !- Field 24
    For: WinterDesignDay,     !- Field 25
    Until: 24:00,             !- Field 26
    0,                        !- Field 27
    For: Weekdays,            !- Field 28
    Until: 8:00,              !- Field 29
    0.12411,                  !- Field 30
    Until: 20:00,             !- Field 31
    0.35,                     !- Field 32
    Until: 24:00,             !- Field 33
    0.12411,                  !- Field 34
    For: Saturday,            !- Field 35
    Until: 24:00,             !- Field 36
    0.12411,                  !- Field 37
    For: AllOtherDays,        !- Field 38
    Until: 24:00,             !- Field 39
    0.12411,                  !- Field 40
    Through: 12/31,           !- Field 41
    For: SummerDesignDay,     !- Field 42
    Until: 24:00,             !- Field 43
    1,                        !- Field 44
    For: WinterDesignDay,     !- Field 45
    Until: 24:00,             !- Field 46
    0,                        !- Field 47
    For: Weekdays,            !- Field 48
    Until: 7:00,              !- Field 49
    0.12411,                  !- Field 50
    Until: 21:00,             !- Field 51
    0.63,                     !- Field 52
    Until: 24:00,             !- Field 53
    0.12411,                  !- Field 54
    For: Saturday,            !- Field 55
    Until: 24:00,             !- Field 56
    0.12411,                  !- Field 57
    For: AllOtherDays,        !- Field 58
    Until: 24:00,             !- Field 59
    0.12411;                  !- Field 60

SCHEDULE:COMPACT,
    ltg_sch_office,           !- Name
    Fraction,                 !- Schedule Type Limits Name
    Through: 6/30,            !- Field 1
    For: SummerDesignDay,     !- Field 2
    Until: 24:00,             !- Field 3
    1,                        !- Field 4
    For: WinterDesignDay,     !- Field 5
    Until: 24:00,             !- Field 6
    0,                        !- Field 7
    For: Weekdays,            !- Field 8
    Until: 7:00,              !- Field 9
    0.12403,                  !- Field 10
    Until: 21:00,             !- Field 11
    0.62962,                  !- Field 12
    Until: 24:00,             !- Field 13
    0.12403,                  !- Field 14
    For: Saturday,            !- Field 15
    Until: 24:00,             !- Field 16
    0.12403,                  !- Field 17
    For: AllOtherDays,        !- Field 18
    Until: 24:00,             !- Field 19
    0.12403,                  !- Field 20
    Through: 9/1,             !- Field 21
    For: SummerDesignDay,     !- Field 22
    Until: 24:00,             !- Field 23
    1,                        !- Field 24
    For: WinterDesignDay,     !- Field 25
    Until: 24:00,             !- Field 26
    0,                        !- Field 27
    For: Weekdays,            !- Field 28
    Until: 8:00,              !- Field 29
    0.12403,                  !- Field 30
    Until: 20:00,             !- Field 31
    0.34979,                  !- Field 32
    Until: 24:00,             !- Field 33
    0.12403,                  !- Field 34
    For: Saturday,            !- Field 35
    Until: 24:00,             !- Field 36
    0.12403,                  !- Field 37
    For: AllOtherDays,        !- Field 38
    Until: 24:00,             !- Field 39
    0.12403,                  !- Field 40
    Through: 12/31,           !- Field 41
    For: SummerDesignDay,     !- Field 42
    Until: 24:00,             !- Field 43
    1,                        !- Field 44
    For: WinterDesignDay,     !- Field 45
    Until: 24:00,             !- Field 46
    0,                        !- Field 47
    For: Weekdays,            !- Field 48
    Until: 7:00,              !- Field 49
    0.12403,                  !- Field 50
    Until: 21:00,             !- Field 51
    0.62962,                  !- Field 52
    Until: 24:00,             !- Field 53
    0.12403,                  !- Field 54
    For: Saturday,            !- Field 55
    Until: 24:00,             !- Field 56
    0.12403,                  !- Field 57
    For: AllOtherDays,        !- Field 58
    Until: 24:00,             !- Field 59
    0.12403;                  !- Field 60

SCHEDULE:COMPACT,
    ltg_sch_lobby,            !- Name
    Fraction,                 !- Schedule Type Limits Name
    Through: 6/30,            !- Field 1
    For: SummerDesignDay,     !- Field 2
    Until: 24:00,             !- Field 3
    1,                        !- Field 4
    For: WinterDesignDay,     !- Field 5
    Until: 24:00,             !- Field 6
    0,                        !- Field 7
    For: Weekdays,            !- Field 8
    Until: 7:00,              !- Field 9
    0.13298,                  !- Field 10
    Until: 21:00,             !- Field 11
    0.675,                    !- Field 12
    Until: 24:00,             !- Field 13
    0.13298,                  !- Field 14
    For: Saturday,            !- Field 15
    Until: 24:00,             !- Field 16
    0.13298,                  !- Field 17
    For: AllOtherDays,        !- Field 18