!- Windows Line endings 

Version,
    24.2;                     !- Version Identifier

SimulationControl,
    Yes,                      !- Do Zone Sizing Calculation
    Yes,                      !- Do System Sizing Calculation
    Yes,                      !- Do Plant Sizing Calculation
    No,                       !- Run Simulation for Sizing Periods
    Yes,                      !- Run Simulation for Weather File Run Periods
    No,                       !- Do HVAC Sizing Simulation for Sizing Periods
    1;                        !- Maximum Number of HVAC Sizing Simulation Passes

Building,
    OfficeLarge,              !- Name
    0,                        !- North Axis
    City,                     !- Terrain
    0.04,                     !- Loads Convergence Tolerance Value
    0.2,                      !- Temperature Convergence Tolerance Value
    FullInteriorAndExterior,    !- Solar Distribution
    25,                       !- Maximum Number of Warmup Days
    6;                        !- Minimum Number of Warmup Days

ShadowCalculation,
    PolygonClipping,          !- Shading Calculation Method
    Periodic,                 !- Shading Calculation Update Frequency Method
    30;                       !- Shading Calculation Update Frequency

SurfaceConvectionAlgorithm:Inside,
    TARP;                     !- Algorithm

SurfaceConvectionAlgorithm:Outside,
    TARP;                     !- Algorithm

HeatBalanceAlgorithm,
    ConductionTransferFunction;    !- Algorithm

Timestep,
    6;                        !- Number of Timesteps per Hour

ConvergenceLimits,
    1,                        !- Minimum System Timestep
    20;                       !- Maximum HVAC Iterations

Site:Location,
    New.York-John.F.Kennedy.Intl.AP_NY_USA WMO=744860,    !- Name
    40.66,                    !- Latitude
    -73.8,                    !- Longitude
    -5,                       !- Time Zone
    7;                        !- Elevation

SizingPeriod:DesignDay,
    New.York-John.F.Kennedy.Intl.AP_NY_USA Ann Htg 99.6% Condns DB,    !- Name
    1,                        !- Month
    21,                       !- Day of Month
    WinterDesignDay,          !- Day Type
    -10.7,                    !- Maximum DryBulb Temperature
    0,                        !- Daily DryBulb Temperature Range
    DefaultMultipliers,       !- DryBulb Temperature Range Modifier Type
    ,                         !- DryBulb Temperature Range Modifier Day Schedule Name
    Wetbulb,                  !- Humidity Condition Type
    -10.7,                    !- Wetbulb or DewPoint at Maximum DryBulb
    ,                         !- Humidity Condition Day Schedule Name
    ,                         !- Humidity Ratio at Maximum DryBulb
    ,                         !- Enthalpy at Maximum DryBulb
    ,                         !- Daily WetBulb Temperature Range
    101241,                   !- Barometric Pressure
    7.5,                      !- Wind Speed
    320,                      !- Wind Direction
    No,                       !- Rain Indicator
    No,                       !- Snow Indicator
    No,                       !- Daylight Saving Time Indicator
    ASHRAEClearSky,           !- Solar Model Indicator
    ,                         !- Beam Solar Day Schedule Name
    ,                         !- Diffuse Solar Day Schedule Name
    ,                         !- ASHRAE Clear Sky Optical Depth for Beam Irradiance taub
    ,                         !- ASHRAE Clear Sky Optical Depth for Diffuse Irradiance taud
    0;                        !- Sky Clearness

SizingPeriod:DesignDay,
    New.York-John.F.Kennedy.Intl.AP_NY_USA Ann Clg .4% Condns DB=>MWB,    !- Name
    7,                        !- Month
    21,                       !- Day of Month
    SummerDesignDay,          !- Day Type
    32.1,                     !- Maximum DryBulb Temperature
    7.4,                      !- Daily DryBulb Temperature Range
    DefaultMultipliers,       !- DryBulb Temperature Range Modifier Type
    ,                         !- DryBulb Temperature Range Modifier Day Schedule Name
    Wetbulb,                  !- Humidity Condition Type
    23.1,                     !- Wetbulb or DewPoint at Maximum DryBulb
    ,                         !- Humidity Condition Day Schedule Name
    ,                         !- Humidity Ratio at Maximum DryBulb
    ,                         !- Enthalpy at Maximum DryBulb
    ,                         !- Daily WetBulb Temperature Range
    101241,                   !- Barometric Pressure
    5.6,                      !- Wind Speed
    230,                      !- Wind Direction
    No,                       !- Rain Indicator
    No,                       !- Snow Indicator
    No,                       !- Daylight Saving Time Indicator
    ASHRAETau,                !- Solar Model Indicator
    ,                         !- Beam Solar Day Schedule Name
    ,                         !- Diffuse Solar Day Schedule Name
    0.541,                    !- ASHRAE Clear Sky Optical Depth for Beam Irradiance taub
    1.8;                      !- ASHRAE Clear Sky Optical Depth for Diffuse Irradiance taud

RunPeriod,
    RUNPERIOD 1,              !- Name
    1,                        !- Begin Month
    1,                        !- Begin Day of Month
    ,                         !- Begin Year
    12,                       !- End Month
    31,                       !- End Day of Month
    ,                         !- End Year
    Sunday,                   !- Day of Week for Start Day
    No,                       !- Use Weather File Holidays and Special Days
    No,                       !- Use Weather File Daylight Saving Period
    No,                       !- Apply Weekend Holiday Rule
    Yes,                      !- Use Weather File Rain Indicators
    Yes;                      !- Use Weather File Snow Indicators

RunPeriodControl:SpecialDays,
    New Years Day,            !- Name
    January 1,                !- Start Date
    1,                        !- Duration
    Holiday;                  !- Special Day Type

RunPeriodControl:SpecialDays,
    Veterans Day,             !- Name
    November 11,              !- Start Date
    1,                        !- Duration
    Holiday;                  !- Special Day Type

RunPeriodControl:SpecialDays,
    Christmas,                !- Name
    December 25,              !- Start Date
    1,                        !- Duration
    Holiday;                  !- Special Day Type

RunPeriodControl:SpecialDays,
    Independence Day,         !- Name
    July 4,                   !- Start Date
    1,                        !- Duration
    Holiday;                  !- Special Day Type

RunPeriodControl:SpecialDays,
    MLK Day,                  !- Name
    3rd Monday in January,    !- Start Date
    1,                        !- Duration
    Holiday;                  !- Special Day Type

RunPeriodControl:SpecialDays,
    Presidents Day,           !- Name
    3rd Monday in February,    !- Start Date
    1,                        !- Duration
    Holiday;                  !- Special Day Type

RunPeriodControl:SpecialDays,
    Memorial Day,             !- Name
    Last Monday in May,       !- Start Date
    1,                        !- Duration
    Holiday;                  !- Special Day Type

RunPeriodControl:SpecialDays,
    Labor Day,                !- Name
    1st Monday in September,    !- Start Date
    1,                        !- Duration
    Holiday;                  !- Special Day Type

RunPeriodControl:SpecialDays,
    Columbus Day,             !- Name
    2nd Monday in October,    !- Start Date
    1,                        !- Duration
    Holiday;                  !- Special Day Type

RunPeriodControl:SpecialDays,
    Thanksgiving,             !- Name
    4th Thursday in November,    !- Start Date
    1,                        !- Duration
    Holiday;                  !- Special Day Type

RunPeriodControl:DaylightSavingTime,
    2nd Sunday in March,      !- Start Date
    1st Sunday in November;    !- End Date

Site:GroundTemperature:FCfactorMethod,
    14,                       !- January Ground Temperature
    7.3,                      !- February Ground Temperature
    3.3,                      !- March Ground Temperature
    1.2,                      !- April Ground Temperature
    -0.2,                     !- May Ground Temperature
    5.6,                      !- June Ground Temperature
    10.9,                     !- July Ground Temperature
    16.1,                     !- August Ground Temperature
    21.7,                     !- September Ground Temperature
    25,                       !- October Ground Temperature
    24.8,                     !- November Ground Temperature
    19.9;                     !- December Ground Temperature

Site:WaterMainsTemperature,
    Correlation,              !- Calculation Method
    ,                         !- Temperature Schedule Name
    12.4666666666667,         !- Annual Average Outdoor Air Temperature
    25.2;                     !- Maximum Difference In Monthly Average Outdoor Air Temperatures

ScheduleTypeLimits,
    Any Number;               !- Name

ScheduleTypeLimits,
    Fraction,                 !- Name
    0,                        !- Lower Limit Value
    1,                        !- Upper Limit Value
    Continuous;               !- Numeric Type

ScheduleTypeLimits,
    Temperature,              !- Name
    -60,                      !- Lower Limit Value
    200,                      !- Upper Limit Value
    Continuous;               !- Numeric Type

ScheduleTypeLimits,
    On/Off,                   !- Name
    0,                        !- Lower Limit Value
    1,                        !- Upper Limit Value
    Discrete;                 !- Numeric Type

ScheduleTypeLimits,
    Control Type,             !- Name
    0,                        !- Lower Limit Value
    4,                        !- Upper Limit Value
    Discrete;                 !- Numeric Type

ScheduleTypeLimits,
    Humidity,                 !- Name
    10,                       !- Lower Limit Value
    90,                       !- Upper Limit Value
    Continuous;               !- Numeric Type

ScheduleTypeLimits,
    Number;                   !- Name

SCHEDULETYPELIMITS,
    AHU Setpoint Manager other Schedule Type Limits,    !- Name
    0,                        !- Lower Limit Value
    100,                      !- Upper Limit Value
    Continuous,               !- Numeric Type
    Temperature;              !- Unit Type

SCHEDULETYPELIMITS,
    AHU Setpoint Manager Dehum other Schedule Type Limits,    !- Name
    0,                        !- Lower Limit Value
    100,                      !- Upper Limit Value
    Continuous,               !- Numeric Type
    Temperature;              !- Unit Type

SCHEDULETYPELIMITS,
    AHU Setpoint Manager bot Schedule Type Limits,    !- Name
    0,                        !- Lower Limit Value
    100,                      !- Upper Limit Value
    Continuous,               !- Numeric Type
    Temperature;              !- Unit Type

SCHEDULETYPELIMITS,
    AHU Setpoint Manager Dehum bot Schedule Type Limits,    !- Name
    0,                        !- Lower Limit Value
    100,                      !- Upper Limit Value
    Continuous,               !- Numeric Type
    Temperature;              !- Unit Type

SCHEDULETYPELIMITS,
    AHU Setpoint Manager mid Schedule Type Limits,    !- Name
    0,                        !- Lower Limit Value
    100,                      !- Upper Limit Value
    Continuous,               !- Numeric Type
    Temperature;              !- Unit Type

SCHEDULETYPELIMITS,
    AHU Setpoint Manager Dehum mid Schedule Type Limits,    !- Name
    0,                        !- Lower Limit Value
    100,                      !- Upper Limit Value
    Continuous,               !- Numeric Type
    Temperature;              !- Unit Type

SCHEDULETYPELIMITS,
    AHU Setpoint Manager top Schedule Type Limits,    !- Name
    0,                        !- Lower Limit Value
    100,                      !- Upper Limit Value
    Continuous,               !- Numeric Type
    Temperature;              !- Unit Type

SCHEDULETYPELIMITS,
    AHU Setpoint Manager Dehum top Schedule Type Limits,    !- Name
    0,                        !- Lower Limit Value
    100,                      !- Upper Limit Value
    Continuous,               !- Numeric Type
    Temperature;              !- Unit Type

SCHEDULETYPELIMITS,
    Chilled Water Temp Schedule Type Limits,    !- Name
    0,                        !- Lower Limit Value
    100,                      !- Upper Limit Value
    Continuous,               !- Numeric Type
    Temperature;              !- Unit Type

SCHEDULETYPELIMITS,
    Hot Water Temperature Schedule Type Limits,    !- Name
    0,                        !- Lower Limit Value
    100,                      !- Upper Limit Value
    Continuous,               !- Numeric Type
    Temperature;              !- Unit Type

Schedule:Compact,
    PV_SCH,                   !- Name
    Fraction,                 !- Schedule Type Limits Name
    Through: 12/31,           !- Field 1
    For: AllDays,             !- Field 2
    Until: 24:00,             !- Field 3
    1;                        !- Field 4

Schedule:Compact,
    Exterior_lighting_schedule_a,    !- Name
    fraction,                 !- Schedule Type Limits Name
    Through:12/31,            !- Field 1
    For:AllDays,              !- Field 2
    Until: 06:00,             !- Field 3
    0,                        !- Field 4
    Until: 24:00,             !- Field 5
    1;                        !- Field 6

Schedule:Compact,
    Exterior_lighting_schedule_b,    !- Name
    fraction,                 !- Schedule Type Limits Name
    Through:12/31,            !- Field 1
    For:AllDays,              !- Field 2
    Until: 06:00,             !- Field 3
    0.7,                      !- Field 4
    Until: 24:00,             !- Field 5
    1;                        !- Field 6

Schedule:Compact,
    Exterior_lighting_schedule_a_IECC2015,    !- Name
    fraction,                 !- Schedule Type Limits Name
    Through:12/31,            !- Field 1
    For:Weekdays SummerDesignDay,    !- Field 2
    Until: 07:00,             !- Field 3
    0,                        !- Field 4
    Until: 22:00,             !- Field 5
    1,                        !- Field 6
    Until: 24:00,             !- Field 7
    0,                        !- Field 8
    For:Saturdays,            !- Field 9
    Until: 07:00,             !- Field 10
    0,                        !- Field 11
    Until: 18:00,             !- Field 12
    1,                        !- Field 13
    Until: 24:00,             !- Field 14
    0,                        !- Field 15
    For:AllOtherDays,         !- Field 16
    Until: 24:00,             !- Field 17
    0;                        !- Field 18

Schedule:Compact,
    Exterior_lighting_schedule_b_2016,    !- Name
    fraction,                 !- Schedule Type Limits Name
    Through:12/31,            !- Field 1
    For:AllDays,              !- Field 2
    Until: 06:00,             !- Field 3
    0.5,                      !- Field 4
    Until: 24:00,             !- Field 5
    1;                        !- Field 6

Schedule:Compact,
    Exterior_lighting_schedule_c_2016,    !- Name
    fraction,                 !- Schedule Type Limits Name
    Through:12/31,            !- Field 1
    For:AllDays,              !- Field 2
    Until: 06:00,             !- Field 3
    0.5,                      !- Field 4
    Until: 19:00,             !- Field 5
    1,                        !- Field 6
    Until: 24:00,             !- Field 7
    0.5;                      !- Field 8

Schedule:Compact,
    Hours_of_operation,       !- Name
    on/off,                   !- Schedule Type Limits Name
    Through: 12/31,           !- Field 1
    For: Weekdays SummerDesignDay,    !- Field 2
    Until: 06:00,             !- Field 3
    0.0,                      !- Field 4
    Until: 22:00,             !- Field 5
    1.0,                      !- Field 6
    Until: 24:00,             !- Field 7
    0.0,                      !- Field 8
    For: Saturday WinterDesignDay,    !- Field 9
    Until: 06:00,             !- Field 10
    0.0,                      !- Field 11
    Until: 18:00,             !- Field 12
    1.0,                      !- Field 13
    Until: 24:00,             !- Field 14
    0.0,                      !- Field 15
    For: Sunday Holidays AllOtherDays,    !- Field 16
    Until: 24:00,             !- Field 17
    0.0;                      !- Field 18

Schedule:Compact,
    ALWAYS_ON,                !- Name
    Fraction,                 !- Schedule Type Limits Name
    Through: 12/31,           !- Field 1
    For: AllDays,             !- Field 2
    Until: 24:00,             !- Field 3
    1.0;                      !- Field 4

Schedule:Compact,
    Exterior_Lgt_ALWAYS_ON,    !- Name
    Fraction,                 !- Schedule Type Limits Name
    Through: 12/31,           !- Field 1
    For: AllDays,             !- Field 2
    Until: 24:00,             !- Field 3
    1;                        !- Field 4

Schedule:Compact,
    Exterior_Lgt_189_1,       !- Name
    Fraction,                 !- Schedule Type Limits Name
    Through:12/31,            !- Field 1
    For:Weekdays,             !- Field 2
    Until:  9:00,             !- Field 3
    0.5,                      !- Field 4
    Until: 24:00,             !- Field 5
    1.0,                      !- Field 6
    For:Saturday,             !- Field 7
    Until:  9:00,             !- Field 8
    0.5,                      !- Field 9
    Until: 19:00,             !- Field 10
    1.0,                      !- Field 11
    Until: 24:00,             !- Field 12
    0.5,                      !- Field 13
    FOR: Sunday Holidays AllOtherDays,    !- Field 14
    Until:  9:00,             !- Field 15
    0.5,                      !- Field 16
    Until: 18:00,             !- Field 17
    1.0,                      !- Field 18
    Until: 24:00,             !- Field 19
    0.5;                      !- Field 20

Schedule:Compact,
    ALWAYS_OFF,               !- Name
    Fraction,                 !- Schedule Type Limits Name
    Through: 12/31,           !- Field 1
    For: AllDays,             !- Field 2
    Until: 24:00,             !- Field 3
    0.0;                      !- Field 4

Schedule:Compact,
    HVACOperationSchd,        !- Name
    on/off,                   !- Schedule Type Limits Name
    Through: 12/31,           !- Field 1
    For: Weekdays SummerDesignDay,    !- Field 2
    Until: 06:00,             !- Field 3
    0.0,                      !- Field 4
    Until: 22:00,             !- Field 5
    1.0,                      !- Field 6
    Until: 24:00,             !- Field 7
    0.0,                      !- Field 8
    For: Saturday WinterDesignDay,    !- Field 9
    Until: 06:00,             !- Field 10
    0.0,                      !- Field 11
    Until: 18:00,             !- Field 12
    1.0,                      !- Field 13
    Until: 24:00,             !- Field 14
    0.0,                      !- Field 15
    For: Sunday Holidays AllOtherDays,    !- Field 16
    Until: 24:00,             !- Field 17
    0.0;                      !- Field 18

SCHEDULE:COMPACT,
    ltg_sch_office,           !- Name
    Fraction,                 !- Schedule Type Limits Name
    Through: 12/31,           !- Field 1
    For: SummerDesignDay,     !- Field 2
    Until: 24:00,             !- Field 3
    1,                        !- Field 4
    For: WinterDesignDay,     !- Field 5
    Until: 24:00,             !- Field 6
    0,                        !- Field 7
    For: Weekdays,            !- Field 8
    Until: 5:00,              !- Field 9
    0.03519759547125,         !- Field 10
    Until: 7:00,              !- Field 11
    0.0703951909425,          !- Field 12
    Until: 8:00,              !- Field 13
    0.211194772408125,        !- Field 14
    Until: 17:00,             !- Field 15
    0.63357511764375,         !- Field 16
    Until: 18:00,             !- Field 17
    0.351985154293125,        !- Field 18
    Until: 20:00,             !- Field 19
    0.211194772408125,        !- Field 20
    Until: 22:00,             !- Field 21
    0.140790381885,           !- Field 22
    Until: 23:00,             !- Field 23
    0.0703951909425,          !- Field 24
    Until: 24:00,             !- Field 25
    0.03519759547125,         !- Field 26
    For: Saturday,            !- Field 27
    Until: 6:00,              !- Field 28
    0.03519759547125,         !- Field 29
    Until: 8:00,              !- Field 30
    0.0703951909425,          !- Field 31
    Until: 12:00,             !- Field 32
    0.211194772408125,        !- Field 33
    Until: 17:00,             !- Field 34
    0.10559278641375,         !- Field 35
    Until: 24:00,             !- Field 36
    0.03519759547125,         !- Field 37
    For: AllOtherDays,        !- Field 38
    Until: 24:00,             !- Field 39
    0.03519759547125;         !- Field 40

SCHEDULE:COMPACT,
    ltg_sch_datacenter,       !- Name
    Fraction,                 !- Schedule Type Limits Name
    Through: 12/31,           !- Field 1
    For: SummerDesignDay,     !- Field 2
    Until: 24:00,             !- Field 3
    1,                        !- Field 4
    For: WinterDesignDay,     !- Field 5
    Until: 24:00,             !- Field 6
    0,                        !- Field 7
    For: Weekdays,            !- Field 8
    Until: 5:00,              !- Field 9
    0.03130237078125,         !- Field 10
    Until: 7:00,              !- Field 11
    0.06259844203125,         !- Field 12
    Until: 8:00,              !- Field 13
    0.187801625625,           !- Field 14
    Until: 17:00,             !- Field 15
    0.56341117640625,         !- Field 16
    Until: 18:00,             !- Field 17
    0.31300480921875,         !- Field 18
    Until: 20:00,             !- Field 19
    0.187801625625,           !- Field 20
    Until: 22:00,             !- Field 21
    0.12520318359375,         !- Field 22
    Until: 23:00,             !- Field 23
    0.06259844203125,         !- Field 24
    Until: 24:00,             !- Field 25
    0.03130237078125,         !- Field 26
    For: Saturday,            !- Field 27
    Until: 6:00,              !- Field 28
    0.03130237078125,         !- Field 29
    Until: 8:00,              !- Field 30
    0.06259844203125,         !- Field 31
    Until: 12:00,             !- Field 32
    0.187801625625,           !- Field 33
    Until: 17:00,             !- Field 34
    0.0939008128125,          !- Field 35
    Until: 24:00,             !- Field 36
    0.03130237078125,         !- Field 37
    For: AllOtherDays,        !- Field 38
    Until: 24:00,             !- Field 39
    0.03130237078125;         !- Field 40

Schedule:Compact,
    EXTERIOR_LIGHT_SCH,       !- Name
    Fraction,                 !- Schedule Type Limits Name
    Through: 12/31,           !- Field 1
    For: AllDays,             !- Field 2
    Until: 07:00,             !- Field 3
    1.0,                      !- Field 4
    Until: 19:00,             !- Field 5
    0.0,                      !- Field 6
    Until: 24:00,             !- Field 7
    1.0;                      !- Field 8

Schedule:Compact,
    BLDG_EQUIP_SCH,           !- Name
    Fraction,                 !- Schedule Type Limits Name
    Through: 12/31,           !- Field 1
    For: Weekdays,            !- Field 2
    Until: 06:00,             !- Field 3
    0.2947764352,             !- Field 4
    Until: 08:00,             !- Field 5
    0.3796573052,             !- Field 6
    Until: 12:00,             !- Field 7
    0.8542289367,             !- Field 8
    Until: 13:00,             !- Field 9
    0.7593146104,             !- Field 10
    Until: 17:00,             !- Field 11
    0.8542289367,             !- Field 12
    Until: 18:00,             !- Field 13
    0.4745716315,             !- Field 14
    Until: 24:00,             !- Field 15
    0.3796573052,             !- Field 16
    For: SummerDesignDay,     !- Field 17
    Until: 24:00,             !- Field 18
    1.0,                      !- Field 19
    For: Saturday,            !- Field 20
    Until: 06:00,             !- Field 21
    0.2210823264,             !- Field 22
    Until: 08:00,             !- Field 23
    0.3796573052,             !- Field 24
    Until: 12:00,             !- Field 25
    0.4745716315,             !- Field 26
    Until: 17:00,             !- Field 27
    0.33220014205,            !- Field 28
    Until: 19:00,             !- Field 29
    0.2847429789,             !- Field 30
    Until: 24:00,             !- Field 31
    0.2210823264,             !- Field 32
    For: WinterDesignDay,     !- Field 33
    Until: 24:00,             !- Field 34
    0.0,                      !- Field 35
    For: Sunday Holidays AllOtherDays,    !- Field 36
    Until: 06:00,             !- Field 37
    0.2210823264,             !- Field 38
    Until: 18:00,             !- Field 39
    0.2847429789,             !- Field 40
    Until: 24:00,             !- Field 41
    0.2210823264;             !- Field 42

Schedule:Compact,
    DataCenter_EQUIP_SCH,     !- Name
    Fraction,                 !- Schedule Type Limits Name
    Through: 1/31,            !- Field 1
    For: SummerDesignDay,     !- Field 2
    Until: 24:00,             !- Field 3
    1.0,                      !- Field 4
    For: WinterDesignDay,     !- Field 5
    Until: 24:00,             !- Field 6
    0.25,                     !- Field 7
    For: AllOtherDays,        !- Field 8
    Until: 24:00,             !- Field 9
    0.25,                     !- Field 10
    Through: 2/28,            !- Field 11
    For: SummerDesignDay,     !- Field 12
    Until: 24:00,             !- Field 13
    1.0,                      !- Field 14
    For: WinterDesignDay,     !- Field 15
    Until: 24:00,             !- Field 16
    0.25,                     !- Field 17
    For: AllOtherDays,        !- Field 18
    Until: 24:00,             !- Field 19
    0.5,                      !- Field 20
    Through: 3/31,            !- Field 21
    For: SummerDesignDay,     !- Field 22
    Until: 24:00,             !- Field 23
    1.0,                      !- Field 24
    For: WinterDesignDay,     !- Field 25
    Until: 24:00,             !- Field 26
    0.25,                     !- Field 27
    For: AllOtherDays,        !- Field 28
    Until: 24:00,             !- Field 29
    0.75,                     !- Field 30
    Through: 4/30,            !- Field 31
    For: SummerDesignDay,     !- Field 32
    Until: 24:00,             !- Field 33
    1.0,                      !- Field 34
    For: WinterDesignDay,     !- Field 35
    Until: 24:00,             !- Field 36
    0.25,                     !- Field 37
    For: AllOtherDays,        !- Field 38
    Until: 24:00,             !- Field 39
    1,                        !- Field 40
    Through: 5/31,            !- Field 41
    For: SummerDesignDay,     !- Field 42
    Until: 24:00,             !- Field 43
    1.0,                      !- Field 44
    For: WinterDesignDay,     !- Field 45
    Until: 24:00,             !- Field 46
    0.25,                     !- Field 47
    For: AllOtherDays,        !- Field 48
    Until: 24:00,             !- Field 49
    0.25,                     !- Field 50
    Through: 6/30,            !- Field 51
    For: SummerDesignDay,     !- Field 52
    Until: 24:00,             !- Field 53
    1.0,                      !- Field 54
    For: WinterDesignDay,     !- Field 55
    Until: 24:00,             !- Field 56
    0.25,                     !- Field 57
    For: AllOtherDays,        !- Field 58
    Until: 24:00,             !- Field 59
    0.5,                      !- Field 60
    Through: 7/31,            !- Field 61
    For: SummerDesignDay,     !- Field 62
    Until: 24:00,             !- Field 63
    1.0,                      !- Field 64
    For: WinterDesignDay,     !- Field 65
    Until: 24:00,             !- Field 66
    0.25,                     !- Field 67
    For: AllOtherDays,        !- Field 68
    Until: 24:00,             !- Field 69
    0.75,                     !- Field 70
    Through: 8/31,            !- Field 71
    For: SummerDesignDay,     !- Field 72
    Until: 24:00,             !- Field 73
    1.0,                      !- Field 74
    For: WinterDesignDay,     !- Field 75
    Until: 24:00,             !- Field 76
    0.25,                     !- Field 77
    For: AllOtherDays,        !- Field 78
    Until: 24:00,             !- Field 79
    1,                        !- Field 80
    Through: 9/30,            !- Field 81
    For: SummerDesignDay,     !- Field 82
    Until: 24:00,             !- Field 83
    1.0,                      !- Field 84
    For: WinterDesignDay,     !- Field 85
    Until: 24:00,             !- Field 86
    0.25,                     !- Field 87
    For: AllOtherDays,        !- Field 88
    Until: 24:00,             !- Field 89
    0.25,                     !- Field 90
    Through: 10/31,           !- Field 91
    For: SummerDesignDay,     !- Field 92
    Until: 24:00,             !- Field 93
    1.0,                      !- Field 94
    For: WinterDesignDay,     !- Field 95
    Until: 24:00,             !- Field 96
    0.25,                     !- Field 97
    For: AllOtherDays,        !- Field 98
    Until: 24:00,             !- Field 99
    0.5,                      !- Field 100
    Through: 11/30,           !- Field 101
    For: SummerDesignDay,     !- Field 102
    Until: 24:00,             !- Field 103
    1.0,                      !- Field 104
    For: WinterDesignDay,     !- Field 105
    Until: 24:00,             !- Field 106
    0.25,                     !- Field 107
    For: AllOtherDays,        !- Field 108
    Until: 24:00,             !- Field 109
    0.75,                     !- Field 110