!- Windows Line endings 

Version,
    24.2;                     !- Version Identifier

SimulationControl,
    Yes,                      !- Do Zone Sizing Calculation
    Yes,                      !- Do System Sizing Calculation
    Yes,                      !- Do Plant Sizing Calculation
    No,                       !- Run Simulation for Sizing Periods
    Yes,                      !- Run Simulation for Weather File Run Periods
    No,                       !- Do HVAC Sizing Simulation for Sizing Periods
    1;                        !- Maximum Number of HVAC Sizing Simulation Passes

Building,
    Warehouse,                !- Name
    90,                       !- North Axis
    Urban,                    !- Terrain
    0.04,                     !- Loads Convergence Tolerance Value
    0.4,                      !- Temperature Convergence Tolerance Value
    FullExterior,             !- Solar Distribution
    25,                       !- Maximum Number of Warmup Days
    6;                        !- Minimum Number of Warmup Days

SurfaceConvectionAlgorithm:Inside,
    TARP;                     !- Algorithm

SurfaceConvectionAlgorithm:Outside,
    TARP;                     !- Algorithm

HeatBalanceAlgorithm,
    ConductionTransferFunction;    !- Algorithm

Timestep,
    6;                        !- Number of Timesteps per Hour

ConvergenceLimits,
    1,                        !- Minimum System Timestep
    20;                       !- Maximum HVAC Iterations

Site:Location,
    New.York-John.F.Kennedy.Intl.AP_NY_USA WMO=744860,    !- Name
    40.66,                    !- Latitude
    -73.8,                    !- Longitude
    -5,                       !- Time Zone
    7;                        !- Elevation

SizingPeriod:DesignDay,
    New.York-John.F.Kennedy.Intl.AP_NY_USA Ann Htg 99.6% Condns DB,    !- Name
    1,                        !- Month
    21,                       !- Day of Month
    WinterDesignDay,          !- Day Type
    -10.7,                    !- Maximum DryBulb Temperature
    0,                        !- Daily DryBulb Temperature Range
    DefaultMultipliers,       !- DryBulb Temperature Range Modifier Type
    ,                         !- DryBulb Temperature Range Modifier Day Schedule Name
    Wetbulb,                  !- Humidity Condition Type
    -10.7,                    !- Wetbulb or DewPoint at Maximum DryBulb
    ,                         !- Humidity Condition Day Schedule Name
    ,                         !- Humidity Ratio at Maximum DryBulb
    ,                         !- Enthalpy at Maximum DryBulb
    ,                         !- Daily WetBulb Temperature Range
    101241,                   !- Barometric Pressure
    7.5,                      !- Wind Speed
    320,                      !- Wind Direction
    No,                       !- Rain Indicator
    No,                       !- Snow Indicator
    No,                       !- Daylight Saving Time Indicator
    ASHRAEClearSky,           !- Solar Model Indicator
    ,                         !- Beam Solar Day Schedule Name
    ,                         !- Diffuse Solar Day Schedule Name
    ,                         !- ASHRAE Clear Sky Optical Depth for Beam Irradiance taub
    ,                         !- ASHRAE Clear Sky Optical Depth for Diffuse Irradiance taud
    0;                        !- Sky Clearness

SizingPeriod:DesignDay,
    New.York-John.F.Kennedy.Intl.AP_NY_USA Ann Clg .4% Condns DB=>MWB,    !- Name
    7,                        !- Month
    21,                       !- Day of Month
    SummerDesignDay,          !- Day Type
    32.1,                     !- Maximum DryBulb Temperature
    7.4,                      !- Daily DryBulb Temperature Range
    DefaultMultipliers,       !- DryBulb Temperature Range Modifier Type
    ,                         !- DryBulb Temperature Range Modifier Day Schedule Name
    Wetbulb,                  !- Humidity Condition Type
    23.1,                     !- Wetbulb or DewPoint at Maximum DryBulb
    ,                         !- Humidity Condition Day Schedule Name
    ,                         !- Humidity Ratio at Maximum DryBulb
    ,                         !- Enthalpy at Maximum DryBulb
    ,                         !- Daily WetBulb Temperature Range
    101241,                   !- Barometric Pressure
    5.6,                      !- Wind Speed
    230,                      !- Wind Direction
    No,                       !- Rain Indicator
    No,                       !- Snow Indicator
    No,                       !- Daylight Saving Time Indicator
    ASHRAETau,                !- Solar Model Indicator
    ,                         !- Beam Solar Day Schedule Name
    ,                         !- Diffuse Solar Day Schedule Name
    0.541,                    !- ASHRAE Clear Sky Optical Depth for Beam Irradiance taub
    1.8;                      !- ASHRAE Clear Sky Optical Depth for Diffuse Irradiance taud

RunPeriod,
    RUNPERIOD 1,              !- Name
    1,                        !- Begin Month
    1,                        !- Begin Day of Month
    ,                         !- Begin Year
    12,                       !- End Month
    31,                       !- End Day of Month
    ,                         !- End Year
    Sunday,                   !- Day of Week for Start Day
    No,                       !- Use Weather File Holidays and Special Days
    No,                       !- Use Weather File Daylight Saving Period
    No,                       !- Apply Weekend Holiday Rule
    Yes,                      !- Use Weather File Rain Indicators
    Yes;                      !- Use Weather File Snow Indicators

RunPeriodControl:SpecialDays,
    New Years Day,            !- Name
    01/01,                    !- Start Date
    1,                        !- Duration
    Holiday;                  !- Special Day Type

RunPeriodControl:SpecialDays,
    ML King Birthday,         !- Name
    3rd Monday in January,    !- Start Date
    1,                        !- Duration
    Holiday;                  !- Special Day Type

RunPeriodControl:SpecialDays,
    Washington's Birthday,    !- Name
    3rd Monday in February,    !- Start Date
    1,                        !- Duration
    Holiday;                  !- Special Day Type

RunPeriodControl:SpecialDays,
    Memorial Day,             !- Name
    Last Monday in May,       !- Start Date
    1,                        !- Duration
    Holiday;                  !- Special Day Type

RunPeriodControl:SpecialDays,
    Fourth of July,           !- Name
    07/04,                    !- Start Date
    1,                        !- Duration
    Holiday;                  !- Special Day Type

RunPeriodControl:SpecialDays,
    Labor Day,                !- Name
    1st Monday in September,    !- Start Date
    1,                        !- Duration
    Holiday;                  !- Special Day Type

RunPeriodControl:SpecialDays,
    Columbus Day,             !- Name
    2nd Monday in October,    !- Start Date
    1,                        !- Duration
    Holiday;                  !- Special Day Type

RunPeriodControl:SpecialDays,
    Veterans Day,             !- Name
    11/11,                    !- Start Date
    1,                        !- Duration
    Holiday;                  !- Special Day Type

RunPeriodControl:SpecialDays,
    Thanksgiving Day,         !- Name
    4th Thursday in November,    !- Start Date
    1,                        !- Duration
    Holiday;                  !- Special Day Type

RunPeriodControl:SpecialDays,
    Christmas Day,            !- Name
    12/25,                    !- Start Date
    1,                        !- Duration
    Holiday;                  !- Special Day Type

RunPeriodControl:DaylightSavingTime,
    2nd Sunday in March,      !- Start Date
    1st Sunday in November;    !- End Date

Site:GroundTemperature:FCfactorMethod,
    14,                       !- January Ground Temperature
    7.3,                      !- February Ground Temperature
    3.3,                      !- March Ground Temperature
    1.2,                      !- April Ground Temperature
    -0.2,                     !- May Ground Temperature
    5.6,                      !- June Ground Temperature
    10.9,                     !- July Ground Temperature
    16.1,                     !- August Ground Temperature
    21.7,                     !- September Ground Temperature
    25,                       !- October Ground Temperature
    24.8,                     !- November Ground Temperature
    19.9;                     !- December Ground Temperature

Site:WaterMainsTemperature,
    Correlation,              !- Calculation Method
    ,                         !- Temperature Schedule Name
    12.4666666666667,         !- Annual Average Outdoor Air Temperature
    25.2;                     !- Maximum Difference In Monthly Average Outdoor Air Temperatures

ScheduleTypeLimits,
    Any Number,               !- Name
    0,                        !- Lower Limit Value
    10000,                    !- Upper Limit Value
    Continuous;               !- Numeric Type

ScheduleTypeLimits,
    Fraction,                 !- Name
    0,                        !- Lower Limit Value
    1,                        !- Upper Limit Value
    Continuous;               !- Numeric Type

ScheduleTypeLimits,
    Temperature,              !- Name
    -60,                      !- Lower Limit Value
    200,                      !- Upper Limit Value
    Continuous;               !- Numeric Type

ScheduleTypeLimits,
    Control Type,             !- Name
    0,                        !- Lower Limit Value
    4,                        !- Upper Limit Value
    Discrete;                 !- Numeric Type

ScheduleTypeLimits,
    On/Off,                   !- Name
    0,                        !- Lower Limit Value
    1,                        !- Upper Limit Value
    Discrete;                 !- Numeric Type

ScheduleTypeLimits,
    COMPACT HVAC Any Number;    !- Name

Schedule:Compact,
    PV_SCH,                   !- Name
    Fraction,                 !- Schedule Type Limits Name
    Through: 12/31,           !- Field 1
    For: AllDays,             !- Field 2
    Until: 24:00,             !- Field 3
    1;                        !- Field 4

SCHEDULE:COMPACT,
    ltg_sch_office,           !- Name
    Fraction,                 !- Schedule Type Limits Name
    Through: 12/31,           !- Field 1
    For: SummerDesignDay,     !- Field 2
    Until: 24:00,             !- Field 3
    1,                        !- Field 4
    For: WinterDesignDay,     !- Field 5
    Until: 24:00,             !- Field 6
    0,                        !- Field 7
    For: Weekdays,            !- Field 8
    Until: 6:00,              !- Field 9
    0.1221630192,             !- Field 10
    Until: 7:00,              !- Field 11
    0.156107128,              !- Field 12
    Until: 8:00,              !- Field 13
    0.2850569816,             !- Field 14
    Until: 12:00,             !- Field 15
    0.5226061224,             !- Field 16
    Until: 13:00,             !- Field 17
    0.4615246128,             !- Field 18
    Until: 17:00,             !- Field 19
    0.5226061224,             !- Field 20
    Until: 18:00,             !- Field 21
    0.414016772,              !- Field 22
    Until: 24:00,             !- Field 23
    0.1221630192,             !- Field 24
    For: Saturday,            !- Field 25
    Until: 6:00,              !- Field 26
    0.1221630192,             !- Field 27
    Until: 7:00,              !- Field 28
    0.156107128,              !- Field 29
    Until: 8:00,              !- Field 30
    0.2850569816,             !- Field 31
    Until: 12:00,             !- Field 32
    0.5226061224,             !- Field 33
    Until: 13:00,             !- Field 34
    0.4615246128,             !- Field 35
    Until: 17:00,             !- Field 36
    0.5226061224,             !- Field 37
    Until: 18:00,             !- Field 38
    0.414016772,              !- Field 39
    Until: 24:00,             !- Field 40
    0.1221630192,             !- Field 41
    For: AllOtherDays,        !- Field 42
    Until: 24:00,             !- Field 43
    0.1221630192;             !- Field 44

SCHEDULE:COMPACT,
    ltg_sch_bulk_storage,     !- Name
    Fraction,                 !- Schedule Type Limits Name
    Through: 12/31,           !- Field 1
    For: SummerDesignDay,     !- Field 2
    Until: 24:00,             !- Field 3
    1,                        !- Field 4
    For: WinterDesignDay,     !- Field 5
    Until: 24:00,             !- Field 6
    0,                        !- Field 7
    For: Weekdays,            !- Field 8
    Until: 7:00,              !- Field 9
    0.04375,                  !- Field 10
    Until: 8:00,              !- Field 11
    0.2625,                   !- Field 12
    Until: 9:00,              !- Field 13
    0.32812,                  !- Field 14
    Until: 16:00,             !- Field 15
    0.37188,                  !- Field 16
    Until: 17:00,             !- Field 17
    0.32812,                  !- Field 18
    Until: 18:00,             !- Field 19
    0.2625,                   !- Field 20
    Until: 24:00,             !- Field 21
    0.04375,                  !- Field 22
    For: Saturday,            !- Field 23
    Until: 7:00,              !- Field 24
    0.04375,                  !- Field 25
    Until: 8:00,              !- Field 26
    0.2625,                   !- Field 27
    Until: 9:00,              !- Field 28
    0.32812,                  !- Field 29
    Until: 16:00,             !- Field 30
    0.37188,                  !- Field 31
    Until: 17:00,             !- Field 32
    0.32812,                  !- Field 33
    Until: 18:00,             !- Field 34
    0.2625,                   !- Field 35
    Until: 24:00,             !- Field 36
    0.04375,                  !- Field 37
    For: AllOtherDays,        !- Field 38
    Until: 24:00,             !- Field 39
    0.04375;                  !- Field 40

SCHEDULE:COMPACT,
    ltg_sch_fine_storage,     !- Name
    Fraction,                 !- Schedule Type Limits Name
    Through: 12/31,           !- Field 1
    For: SummerDesignDay,     !- Field 2
    Until: 24:00,             !- Field 3
    1,                        !- Field 4
    For: WinterDesignDay,     !- Field 5
    Until: 24:00,             !- Field 6
    0,                        !- Field 7
    For: Weekdays,            !- Field 8
    Until: 7:00,              !- Field 9
    0.04375,                  !- Field 10
    Until: 8:00,              !- Field 11
    0.2625,                   !- Field 12
    Until: 9:00,              !- Field 13
    0.32812,                  !- Field 14
    Until: 16:00,             !- Field 15
    0.37188,                  !- Field 16
    Until: 17:00,             !- Field 17
    0.32812,                  !- Field 18
    Until: 18:00,             !- Field 19
    0.2625,                   !- Field 20
    Until: 24:00,             !- Field 21
    0.04375,                  !- Field 22
    For: Saturday,            !- Field 23
    Until: 7:00,              !- Field 24
    0.04375,                  !- Field 25
    Until: 8:00,              !- Field 26
    0.2625,                   !- Field 27
    Until: 9:00,              !- Field 28
    0.32812,                  !- Field 29
    Until: 16:00,             !- Field 30
    0.37188,                  !- Field 31
    Until: 17:00,             !- Field 32
    0.32812,                  !- Field 33
    Until: 18:00,             !- Field 34
    0.2625,                   !- Field 35
    Until: 24:00,             !- Field 36
    0.04375,                  !- Field 37
    For: AllOtherDays,        !- Field 38
    Until: 24:00,             !- Field 39
    0.04375;                  !- Field 40

Schedule:Compact,
    Office_Plug_SCH,          !- Name
    Fraction,                 !- Schedule Type Limits Name
    Through: 12/31,           !- Field 1
    For: SummerDesignDay,     !- Field 2
    Until: 24:00,             !- Field 3
    1.00,                     !- Field 4
    For: WinterDesignDay,     !- Field 5
    Until: 24:00,             !- Field 6
    0.00,                     !- Field 7
    For: Weekdays Saturday,    !- Field 8
    Until: 06:00,             !- Field 9
    0.2456865339,             !- Field 10
    Until: 07:00,             !- Field 11
    0.2878515801,             !- Field 12
    Until: 08:00,             !- Field 13
    0.4797526335,             !- Field 14
    Until: 12:00,             !- Field 15
    0.959505267,              !- Field 16
    Until: 13:00,             !- Field 17
    0.90193495098,            !- Field 18
    Until: 17:00,             !- Field 19
    0.959505267,              !- Field 20
    Until: 18:00,             !- Field 21
    0.4797526335,             !- Field 22
    Until: 24:00,             !- Field 23
    0.2456865339,             !- Field 24
    For: AllOtherDays,        !- Field 25
    Until: 24:00,             !- Field 26
    0.2456865339;             !- Field 27

Schedule:Compact,
    Bulk Storage Plug Schedule,    !- Name
    Fraction,                 !- Schedule Type Limits Name
    Through: 12/31,           !- Field 1
    For: Sunday Holidays,     !- Field 2
    Until: 24:00,             !- Field 3
    0,                        !- Field 4
    For: Weekdays Saturday AllOtherDays,    !- Field 5
    Until: 08:00,             !- Field 6
    0.25,                     !- Field 7
    Until: 12:00,             !- Field 8
    1.00,                     !- Field 9
    Until: 13:00,             !- Field 10
    0.25,                     !- Field 11
    Until: 17:00,             !- Field 12
    1.00,                     !- Field 13
    Until: 24:00,             !- Field 14
    0.25;                     !- Field 15

Schedule:Compact,
    BLDG_OCC_SCH,             !- Name
    Fraction,                 !- Schedule Type Limits Name
    Through: 12/31,           !- Field 1
    For: Weekdays Saturday WinterDesignDay,    !- Field 2
    Until: 06:00,             !- Field 3
    0.00,                     !- Field 4
    Until: 07:00,             !- Field 5
    0.11,                     !- Field 6
    Until: 08:00,             !- Field 7
    0.21,                     !- Field 8
    Until: 12:00,             !- Field 9
    1.00,                     !- Field 10
    Until: 13:00,             !- Field 11
    0.53,                     !- Field 12
    Until: 17:00,             !- Field 13
    1.00,                     !- Field 14
    Until: 18:00,             !- Field 15
    0.32,                     !- Field 16
    Until: 24:00,             !- Field 17
    0.00,                     !- Field 18
    For: SummerDesignDay,     !- Field 19
    Until: 06:00,             !- Field 20
    0.000000001,              !- Field 21
    Until: 07:00,             !- Field 22
    0.11,                     !- Field 23
    Until: 08:00,             !- Field 24
    0.21,                     !- Field 25
    Until: 12:00,             !- Field 26
    1.00,                     !- Field 27
    Until: 13:00,             !- Field 28
    0.53,                     !- Field 29
    Until: 17:00,             !- Field 30
    1.00,                     !- Field 31
    Until: 18:00,             !- Field 32
    0.32,                     !- Field 33
    Until: 24:00,             !- Field 34
    0.000000001,              !- Field 35
    For: Sunday Holidays AllOtherDays,    !- Field 36
    Until: 24:00,             !- Field 37
    0.0;                      !- Field 38

Schedule:Compact,
    Office People Schedule,    !- Name
    Fraction,                 !- Schedule Type Limits Name
    Through: 12/31,           !- Field 1
    For: Sunday Holidays,     !- Field 2
    Until: 24:00,             !- Field 3
    0,                        !- Field 4
    For: Weekdays Saturday AllOtherDays,    !- Field 5
    Until: 06:00,             !- Field 6
    0,                        !- Field 7
    Until: 07:00,             !- Field 8
    0.11,                     !- Field 9
    Until: 08:00,             !- Field 10
    0.21,                     !- Field 11
    Until: 12:00,             !- Field 12
    1,                        !- Field 13
    Until: 13:00,             !- Field 14
    0.53,                     !- Field 15
    Until: 17:00,             !- Field 16
    1,                        !- Field 17
    Until: 18:00,             !- Field 18
    0.32,                     !- Field 19
    Until: 24:00,             !- Field 20
    0;                        !- Field 21

Schedule:Compact,
    Office Activity Schedule,    !- Name
    Any Number,               !- Schedule Type Limits Name
    Through: 12/31,           !- Field 1
    For: AllDays,             !- Field 2
    Until: 24:00,             !- Field 3
    131.85;                   !- Field 4

Schedule:Compact,
    FanSched,                 !- Name
    Fraction,                 !- Schedule Type Limits Name
    Through: 12/31,           !- Field 1
    For: WeekDays Saturday CustomDay1 CustomDay2,    !- Field 2
    Until: 7:00,              !- Field 3
    0.0,                      !- Field 4
    Until: 18:00,             !- Field 5
    1.0,                      !- Field 6
    Until: 24:00,             !- Field 7
    0.0,                      !- Field 8
    For: Sunday Holiday,      !- Field 9
    Until: 24:00,             !- Field 10
    0.0,                      !- Field 11
    For: SummerDesignDay,     !- Field 12
    Until: 24:00,             !- Field 13
    1.0,                      !- Field 14
    For: WinterDesignDay,     !- Field 15
    Until: 24:00,             !- Field 16
    1.0;                      !- Field 17

Schedule:Compact,
    Office Fan Schedule,      !- Name
    On/Off,                   !- Schedule Type Limits Name
    Through: 12/31,           !- Field 1
    For: Sunday Holidays,     !- Field 2
    Until: 24:00,             !- Field 3
    0,                        !- Field 4
    For: Weekdays Saturday SummerDesignDay WinterDesignDay AllOtherDays,    !- Field 5
    Until: 07:00,             !- Field 6
    0,                        !- Field 7
    Until: 18:00,             !- Field 8
    1,                        !- Field 9
    Until: 24:00,             !- Field 10
    0;                        !- Field 11

Schedule:Compact,
    MinOA_MotorizedDamper_Sched,    !- Name
    Fraction,                 !- Schedule Type Limits Name
    Through: 12/31,           !- Field 1
    For: WeekDays Saturday CustomDay1 CustomDay2,    !- Field 2
    Until: 8:00,              !- Field 3
    0.0,                      !- Field 4
    Until: 18:00,             !- Field 5
    1.0,                      !- Field 6
    Until: 24:00,             !- Field 7
    0.0,                      !- Field 8
    For: Sunday Holiday,      !- Field 9
    Until: 24:00,             !- Field 10
    0.0,                      !- Field 11
    For: SummerDesignDay,     !- Field 12
    Until: 24:00,             !- Field 13
    1.0,                      !- Field 14
    For: WinterDesignDay,     !- Field 15
    Until: 24:00,             !- Field 16
    1.0;                      !- Field 17

Schedule:Compact,
    Office HVAC Schedule,     !- Name
    Temperature,              !- Schedule Type Limits Name
    Through: 4/30,            !- Field 1
    For: Sunday Holidays,     !- Field 2
    Until: 24:00,             !- Field 3
    15.6,                     !- Field 4
    For: SummerDesignDay WinterDesignDay,    !- Field 5
    Until: 06:00,             !- Field 6
    15.6,                     !- Field 7
    Until: 07:00,             !- Field 8
    17.8,                     !- Field 9
    Until: 08:00,             !- Field 10
    20.0,                     !- Field 11
    Until: 18:00,             !- Field 12
    21.1,                     !- Field 13
    Until: 24:00,             !- Field 14
    15.6,                     !- Field 15
    For: Weekdays Saturday AllOtherDays,    !- Field 16
    Until: 06:00,             !- Field 17
    15.6,                     !- Field 18
    Until: 18:00,             !- Field 19
    21.1,                     !- Field 20
    Until: 24:00,             !- Field 21
    15.6,                     !- Field 22
    Through: 8/31,            !- Field 23
    For: Sunday Holidays,     !- Field 24
    Until: 24:00,             !- Field 25
    29.4,                     !- Field 26
    For: SummerDesignDay WinterDesignDay,    !- Field 27
    Until: 06:00,             !- Field 28
    29.4,                     !- Field 29
    Until: 07:00,             !- Field 30
    27.8,                     !- Field 31
    Until: 08:00,             !- Field 32
    25.6,                     !- Field 33
    Until: 18:00,             !- Field 34
    23.9,                     !- Field 35
    Until: 24:00,             !- Field 36
    29.4,                     !- Field 37
    For: Weekdays Saturday AllOtherDays,    !- Field 38
    Until: 06:00,             !- Field 39
    29.4,                     !- Field 40
    Until: 18:00,             !- Field 41
    23.9,                     !- Field 42
    Until: 24:00,             !- Field 43
    29.4,                     !- Field 44
    Through: 12/31,           !- Field 45
    For: Sunday Holidays,     !- Field 46
    Until: 24:00,             !- Field 47
    15.6,                     !- Field 48
    For: SummerDesignDay WinterDesignDay,    !- Field 49
    Until: 06:00,             !- Field 50
    15.6,                     !- Field 51
    Until: 07:00,             !- Field 52
    17.8,                     !- Field 53
    Until: 08:00,             !- Field 54
    20.0,                     !- Field 55
    Until: 18:00,             !- Field 56
    21.1,                     !- Field 57
    Until: 24:00,             !- Field 58
    15.6,                     !- Field 59
    For: Weekdays Saturday AllOtherDays,    !- Field 60
    Until: 06:00,             !- Field 61
    15.6,                     !- Field 62
    Until: 18:00,             !- Field 63
    21.1,                     !- Field 64
    Until: 24:00,             !- Field 65
    15.6;                     !- Field 66

Schedule:Compact,
    Office Heating Schedule,    !- Name
    Temperature,              !- Schedule Type Limits Name
    Through: 12/31,           !- Field 1
    For: Sunday Holidays,     !- Field 2
    Until: 24:00,             !- Field 3
    15.6,                     !- Field 4
    For: SummerDesignDay WinterDesignDay,    !- Field 5
    Until: 06:00,             !- Field 6
    15.6,                     !- Field 7
    Until: 07:00,             !- Field 8
    17.8,                     !- Field 9
    Until: 08:00,             !- Field 10
    20.0,                     !- Field 11
    Until: 18:00,             !- Field 12
    21.1,                     !- Field 13
    Until: 24:00,             !- Field 14
    15.6,                     !- Field 15
    For: Weekdays Saturday AllOtherDays,    !- Field 16
    Until: 06:00,             !- Field 17
    15.6,                     !- Field 18
    Until: 18:00,             !- Field 19
    21.1,                     !- Field 20
    Until: 24:00,             !- Field 21
    15.6;                     !- Field 22

Schedule:Compact,
    Office Cooling Schedule,    !- Name
    Temperature,              !- Schedule Type Limits Name
    Through: 12/31,           !- Field 1
    For: Sunday Holidays,     !- Field 2
    Until: 24:00,             !- Field 3
    29.4,                     !- Field 4
    For: SummerDesignDay WinterDesignDay,    !- Field 5
    Until: 06:00,             !- Field 6
    29.4,                     !- Field 7
    Until: 07:00,             !- Field 8
    27.8,                     !- Field 9
    Until: 08:00,             !- Field 10
    25.6,                     !- Field 11
    Until: 18:00,             !- Field 12
    23.9,                     !- Field 13
    Until: 24:00,             !- Field 14
    29.4,                     !- Field 15
    For: Weekdays Saturday AllOtherDays,    !- Field 16
    Until: 06:00,             !- Field 17
    29.4,                     !- Field 18
    Until: 18:00,             !- Field 19
    23.9,                     !- Field 20
    Until: 24:00,             !- Field 21
    29.4;                     !- Field 22

Schedule:Compact,
    Bulk Storage Heating Setpoint Schedule,    !- Name
    Temperature,              !- Schedule Type Limits Name
    Through: 12/31,           !- Field 1
    For: AllDays,             !- Field 2
    Until: 24:00,             !- Field 3
    10.0;                     !- Field 4

Schedule:Compact,
    ZoneControlSchedule,      !- Name
    Control Type,             !- Schedule Type Limits Name
    Through: 12/31,           !- Field 1
    For: AllDays,             !- Field 2
    Until: 24:00,             !- Field 3
    1;                        !- Field 4

Schedule:Compact,
    Office DHW Schedule,      !- Name
    Fraction,                 !- Schedule Type Limits Name
    Through: 12/31,           !- Field 1
    For: Sunday Holidays,     !- Field 2
    Until: 24:00,             !- Field 3
    0.015,                    !- Field 4
    For: Weekdays Saturday AllOtherDays,    !- Field 5
    Until: 06:00,             !- Field 6
    0.000,                    !- Field 7
    Until: 07:00,             !- Field 8
    0.050,                    !- Field 9
    Until: 08:00,             !- Field 10
    0.101,                    !- Field 11
    Until: 09:00,             !- Field 12
    0.399,                    !- Field 13
    Until: 11:00,             !- Field 14
    0.501,                    !- Field 15
    Until: 12:00,             !- Field 16
    0.696,                    !- Field 17
    Until: 13:00,             !- Field 18
    0.900,                    !- Field 19
    Until: 14:00,             !- Field 20
    0.798,                    !- Field 21
    Until: 15:00,             !- Field 22
    0.696,                    !- Field 23
    Until: 16:00,             !- Field 24
    0.798,                    !- Field 25