!- Windows Line endings 

Version,
    24.2;                     !- Version Identifier

SimulationControl,
    Yes,                      !- Do Zone Sizing Calculation
    Yes,                      !- Do System Sizing Calculation
    Yes,                      !- Do Plant Sizing Calculation
    No,                       !- Run Simulation for Sizing Periods
    Yes,                      !- Run Simulation for Weather File Run Periods
    No,                       !- Do HVAC Sizing Simulation for Sizing Periods
    1;                        !- Maximum Number of HVAC Sizing Simulation Passes

Building,
    ApartmentHighRise,        !- Name
    0,                        !- North Axis
    City,                     !- Terrain
    0.04,                     !- Loads Convergence Tolerance Value
    0.2,                      !- Temperature Convergence Tolerance Value
    FullInteriorAndExterior,    !- Solar Distribution
    25,                       !- Maximum Number of Warmup Days
    6;                        !- Minimum Number of Warmup Days

ShadowCalculation,
    PolygonClipping,          !- Shading Calculation Method
    Periodic,                 !- Shading Calculation Update Frequency Method
    30,                       !- Shading Calculation Update Frequency
    15000;                    !- Maximum Figures in Shadow Overlap Calculations

SurfaceConvectionAlgorithm:Inside,
    TARP;                     !- Algorithm

SurfaceConvectionAlgorithm:Outside,
    DOE-2;                    !- Algorithm

HeatBalanceAlgorithm,
    ConductionTransferFunction,    !- Algorithm
    200;                      !- Surface Temperature Upper Limit

Timestep,
    6;                        !- Number of Timesteps per Hour

ConvergenceLimits,
    1,                        !- Minimum System Timestep
    20;                       !- Maximum HVAC Iterations

Site:Location,
    New.York-John.F.Kennedy.Intl.AP_NY_USA WMO=744860,    !- Name
    40.66,                    !- Latitude
    -73.8,                    !- Longitude
    -5,                       !- Time Zone
    7;                        !- Elevation

SizingPeriod:DesignDay,
    New.York-John.F.Kennedy.Intl.AP_NY_USA Ann Htg 99.6% Condns DB,    !- Name
    1,                        !- Month
    21,                       !- Day of Month
    WinterDesignDay,          !- Day Type
    -10.7,                    !- Maximum DryBulb Temperature
    0,                        !- Daily DryBulb Temperature Range
    DefaultMultipliers,       !- DryBulb Temperature Range Modifier Type
    ,                         !- DryBulb Temperature Range Modifier Day Schedule Name
    Wetbulb,                  !- Humidity Condition Type
    -10.7,                    !- Wetbulb or DewPoint at Maximum DryBulb
    ,                         !- Humidity Condition Day Schedule Name
    ,                         !- Humidity Ratio at Maximum DryBulb
    ,                         !- Enthalpy at Maximum DryBulb
    ,                         !- Daily WetBulb Temperature Range
    101241,                   !- Barometric Pressure
    7.5,                      !- Wind Speed
    320,                      !- Wind Direction
    No,                       !- Rain Indicator
    No,                       !- Snow Indicator
    No,                       !- Daylight Saving Time Indicator
    ASHRAEClearSky,           !- Solar Model Indicator
    ,                         !- Beam Solar Day Schedule Name
    ,                         !- Diffuse Solar Day Schedule Name
    ,                         !- ASHRAE Clear Sky Optical Depth for Beam Irradiance taub
    ,                         !- ASHRAE Clear Sky Optical Depth for Diffuse Irradiance taud
    0;                        !- Sky Clearness

SizingPeriod:DesignDay,
    New.York-John.F.Kennedy.Intl.AP_NY_USA Ann Clg .4% Condns DB=>MWB,    !- Name
    7,                        !- Month
    21,                       !- Day of Month
    SummerDesignDay,          !- Day Type
    32.1,                     !- Maximum DryBulb Temperature
    7.4,                      !- Daily DryBulb Temperature Range
    DefaultMultipliers,       !- DryBulb Temperature Range Modifier Type
    ,                         !- DryBulb Temperature Range Modifier Day Schedule Name
    Wetbulb,                  !- Humidity Condition Type
    23.1,                     !- Wetbulb or DewPoint at Maximum DryBulb
    ,                         !- Humidity Condition Day Schedule Name
    ,                         !- Humidity Ratio at Maximum DryBulb
    ,                         !- Enthalpy at Maximum DryBulb
    ,                         !- Daily WetBulb Temperature Range
    101241,                   !- Barometric Pressure
    5.6,                      !- Wind Speed
    230,                      !- Wind Direction
    No,                       !- Rain Indicator
    No,                       !- Snow Indicator
    No,                       !- Daylight Saving Time Indicator
    ASHRAETau,                !- Solar Model Indicator
    ,                         !- Beam Solar Day Schedule Name
    ,                         !- Diffuse Solar Day Schedule Name
    0.541,                    !- ASHRAE Clear Sky Optical Depth for Beam Irradiance taub
    1.8;                      !- ASHRAE Clear Sky Optical Depth for Diffuse Irradiance taud

RunPeriod,
    RUNPERIOD 1,              !- Name
    1,                        !- Begin Month
    1,                        !- Begin Day of Month
    ,                         !- Begin Year
    12,                       !- End Month
    31,                       !- End Day of Month
    ,                         !- End Year
    Sunday,                   !- Day of Week for Start Day
    No,                       !- Use Weather File Holidays and Special Days
    No,                       !- Use Weather File Daylight Saving Period
    No,                       !- Apply Weekend Holiday Rule
    Yes,                      !- Use Weather File Rain Indicators
    Yes;                      !- Use Weather File Snow Indicators

RunPeriodControl:SpecialDays,
    New Years Day,            !- Name
    January 1,                !- Start Date
    1,                        !- Duration
    Holiday;                  !- Special Day Type

RunPeriodControl:SpecialDays,
    Veterans Day,             !- Name
    November 11,              !- Start Date
    1,                        !- Duration
    Holiday;                  !- Special Day Type

RunPeriodControl:SpecialDays,
    Christmas,                !- Name
    December 25,              !- Start Date
    1,                        !- Duration
    Holiday;                  !- Special Day Type

RunPeriodControl:SpecialDays,
    Independence Day,         !- Name
    July 4,                   !- Start Date
    1,                        !- Duration
    Holiday;                  !- Special Day Type

RunPeriodControl:SpecialDays,
    MLK Day,                  !- Name
    3rd Monday in January,    !- Start Date
    1,                        !- Duration
    Holiday;                  !- Special Day Type

RunPeriodControl:SpecialDays,
    Presidents Day,           !- Name
    3rd Monday in February,    !- Start Date
    1,                        !- Duration
    Holiday;                  !- Special Day Type

RunPeriodControl:SpecialDays,
    Memorial Day,             !- Name
    Last Monday in May,       !- Start Date
    1,                        !- Duration
    Holiday;                  !- Special Day Type

RunPeriodControl:SpecialDays,
    Labor Day,                !- Name
    1st Monday in September,    !- Start Date
    1,                        !- Duration
    Holiday;                  !- Special Day Type

RunPeriodControl:SpecialDays,
    Columbus Day,             !- Name
    2nd Monday in October,    !- Start Date
    1,                        !- Duration
    Holiday;                  !- Special Day Type

RunPeriodControl:SpecialDays,
    Thanksgiving,             !- Name
    4th Thursday in November,    !- Start Date
    1,                        !- Duration
    Holiday;                  !- Special Day Type

RunPeriodControl:DaylightSavingTime,
    2nd Sunday in March,      !- Start Date
    1st Sunday in November;    !- End Date

Site:GroundTemperature:FCfactorMethod,
    14,                       !- January Ground Temperature
    7.3,                      !- February Ground Temperature
    3.3,                      !- March Ground Temperature
    1.2,                      !- April Ground Temperature
    -0.2,                     !- May Ground Temperature
    5.6,                      !- June Ground Temperature
    10.9,                     !- July Ground Temperature
    16.1,                     !- August Ground Temperature
    21.7,                     !- September Ground Temperature
    25,                       !- October Ground Temperature
    24.8,                     !- November Ground Temperature
    19.9;                     !- December Ground Temperature

Site:WaterMainsTemperature,
    CORRELATION,              !- Calculation Method
    ,                         !- Temperature Schedule Name
    12.4666666666667,         !- Annual Average Outdoor Air Temperature
    25.2;                     !- Maximum Difference In Monthly Average Outdoor Air Temperatures

ScheduleTypeLimits,
    On/Off,                   !- Name
    0,                        !- Lower Limit Value
    1,                        !- Upper Limit Value
    Discrete;                 !- Numeric Type

ScheduleTypeLimits,
    Fraction,                 !- Name
    0,                        !- Lower Limit Value
    1,                        !- Upper Limit Value
    Continuous;               !- Numeric Type

ScheduleTypeLimits,
    Temperature,              !- Name
    -100,                     !- Lower Limit Value
    100,                      !- Upper Limit Value
    Continuous;               !- Numeric Type

ScheduleTypeLimits,
    Any Number;               !- Name

ScheduleTypeLimits,
    Control Type,             !- Name
    0,                        !- Lower Limit Value
    4,                        !- Upper Limit Value
    Discrete;                 !- Numeric Type

ScheduleTypeLimits,
    COMPACT HVAC Any Number;    !- Name

SCHEDULETYPELIMITS,
    AHU Setpoint Manager G Type Limits,    !- Name
    0,                        !- Lower Limit Value
    100,                      !- Upper Limit Value
    Continuous,               !- Numeric Type
    Temperature;              !- Unit Type

SCHEDULETYPELIMITS,
    AHU Setpoint Manager M Type Limits,    !- Name
    0,                        !- Lower Limit Value
    100,                      !- Upper Limit Value
    Continuous,               !- Numeric Type
    Temperature;              !- Unit Type

SCHEDULETYPELIMITS,
    AHU Setpoint Manager T Type Limits,    !- Name
    0,                        !- Lower Limit Value
    100,                      !- Upper Limit Value
    Continuous,               !- Numeric Type
    Temperature;              !- Unit Type

SCHEDULETYPELIMITS,
    Chilled Water Temp Type Limits,    !- Name
    0,                        !- Lower Limit Value
    100,                      !- Upper Limit Value
    Continuous,               !- Numeric Type
    Temperature;              !- Unit Type

SCHEDULETYPELIMITS,
    Hot Water Temperature Type Limits,    !- Name
    0,                        !- Lower Limit Value
    100,                      !- Upper Limit Value
    Continuous,               !- Numeric Type
    Temperature;              !- Unit Type

SCHEDULE:DAY:INTERVAL,
    AHU Setpoint Manager G Day Schedule,    !- Name
    AHU Setpoint Manager G Type Limits,    !- Schedule Type Limits Name
    No,                       !- Interpolate to Timestep
    24:00,                    !- Time 1
    12.8;                     !- Value Until Time 1

SCHEDULE:DAY:INTERVAL,
    AHU Setpoint Manager M Day Schedule,    !- Name
    AHU Setpoint Manager M Type Limits,    !- Schedule Type Limits Name
    No,                       !- Interpolate to Timestep
    24:00,                    !- Time 1
    12.8;                     !- Value Until Time 1

SCHEDULE:DAY:INTERVAL,
    AHU Setpoint Manager T Day Schedule,    !- Name
    AHU Setpoint Manager T Type Limits,    !- Schedule Type Limits Name
    No,                       !- Interpolate to Timestep
    24:00,                    !- Time 1
    12.8;                     !- Value Until Time 1

SCHEDULE:DAY:INTERVAL,
    Chilled Water Temp Day Schedule,    !- Name
    Chilled Water Temp Type Limits,    !- Schedule Type Limits Name
    No,                       !- Interpolate to Timestep
    24:00,                    !- Time 1
    7;                        !- Value Until Time 1

SCHEDULE:DAY:INTERVAL,
    Hot Water Temperature Day Schedule,    !- Name
    Hot Water Temperature Type Limits,    !- Schedule Type Limits Name
    No,                       !- Interpolate to Timestep
    24:00,                    !- Time 1
    60;                       !- Value Until Time 1

SCHEDULE:WEEK:DAILY,
    AHU Setpoint Manager G Week Schedule,    !- Name
    AHU Setpoint Manager G Day Schedule,    !- Sunday ScheduleDay Name
    AHU Setpoint Manager G Day Schedule,    !- Monday ScheduleDay Name
    AHU Setpoint Manager G Day Schedule,    !- Tuesday ScheduleDay Name
    AHU Setpoint Manager G Day Schedule,    !- Wednesday ScheduleDay Name
    AHU Setpoint Manager G Day Schedule,    !- Thursday ScheduleDay Name
    AHU Setpoint Manager G Day Schedule,    !- Friday ScheduleDay Name
    AHU Setpoint Manager G Day Schedule,    !- Saturday ScheduleDay Name
    AHU Setpoint Manager G Day Schedule,    !- Holiday ScheduleDay Name
    AHU Setpoint Manager G Day Schedule,    !- SummerDesignDay ScheduleDay Name
    AHU Setpoint Manager G Day Schedule,    !- WinterDesignDay ScheduleDay Name
    AHU Setpoint Manager G Day Schedule,    !- CustomDay1 ScheduleDay Name
    AHU Setpoint Manager G Day Schedule;    !- CustomDay2 ScheduleDay Name

SCHEDULE:WEEK:DAILY,
    AHU Setpoint Manager M Week Schedule,    !- Name
    AHU Setpoint Manager M Day Schedule,    !- Sunday ScheduleDay Name
    AHU Setpoint Manager M Day Schedule,    !- Monday ScheduleDay Name
    AHU Setpoint Manager M Day Schedule,    !- Tuesday ScheduleDay Name
    AHU Setpoint Manager M Day Schedule,    !- Wednesday ScheduleDay Name
    AHU Setpoint Manager M Day Schedule,    !- Thursday ScheduleDay Name
    AHU Setpoint Manager M Day Schedule,    !- Friday ScheduleDay Name
    AHU Setpoint Manager M Day Schedule,    !- Saturday ScheduleDay Name
    AHU Setpoint Manager M Day Schedule,    !- Holiday ScheduleDay Name
    AHU Setpoint Manager M Day Schedule,    !- SummerDesignDay ScheduleDay Name
    AHU Setpoint Manager M Day Schedule,    !- WinterDesignDay ScheduleDay Name
    AHU Setpoint Manager M Day Schedule,    !- CustomDay1 ScheduleDay Name
    AHU Setpoint Manager M Day Schedule;    !- CustomDay2 ScheduleDay Name

SCHEDULE:WEEK:DAILY,
    AHU Setpoint Manager T Week Schedule,    !- Name
    AHU Setpoint Manager T Day Schedule,    !- Sunday ScheduleDay Name
    AHU Setpoint Manager T Day Schedule,    !- Monday ScheduleDay Name
    AHU Setpoint Manager T Day Schedule,    !- Tuesday ScheduleDay Name
    AHU Setpoint Manager T Day Schedule,    !- Wednesday ScheduleDay Name
    AHU Setpoint Manager T Day Schedule,    !- Thursday ScheduleDay Name
    AHU Setpoint Manager T Day Schedule,    !- Friday ScheduleDay Name
    AHU Setpoint Manager T Day Schedule,    !- Saturday ScheduleDay Name
    AHU Setpoint Manager T Day Schedule,    !- Holiday ScheduleDay Name
    AHU Setpoint Manager T Day Schedule,    !- SummerDesignDay ScheduleDay Name
    AHU Setpoint Manager T Day Schedule,    !- WinterDesignDay ScheduleDay Name
    AHU Setpoint Manager T Day Schedule,    !- CustomDay1 ScheduleDay Name
    AHU Setpoint Manager T Day Schedule;    !- CustomDay2 ScheduleDay Name

SCHEDULE:WEEK:DAILY,
    Chilled Water Temp Week Schedule,    !- Name
    Chilled Water Temp Day Schedule,    !- Sunday ScheduleDay Name
    Chilled Water Temp Day Schedule,    !- Monday ScheduleDay Name
    Chilled Water Temp Day Schedule,    !- Tuesday ScheduleDay Name
    Chilled Water Temp Day Schedule,    !- Wednesday ScheduleDay Name
    Chilled Water Temp Day Schedule,    !- Thursday ScheduleDay Name
    Chilled Water Temp Day Schedule,    !- Friday ScheduleDay Name
    Chilled Water Temp Day Schedule,    !- Saturday ScheduleDay Name
    Chilled Water Temp Day Schedule,    !- Holiday ScheduleDay Name
    Chilled Water Temp Day Schedule,    !- SummerDesignDay ScheduleDay Name
    Chilled Water Temp Day Schedule,    !- WinterDesignDay ScheduleDay Name
    Chilled Water Temp Day Schedule,    !- CustomDay1 ScheduleDay Name
    Chilled Water Temp Day Schedule;    !- CustomDay2 ScheduleDay Name

SCHEDULE:WEEK:DAILY,
    Hot Water Temperature Week Schedule,    !- Name
    Hot Water Temperature Day Schedule,    !- Sunday ScheduleDay Name
    Hot Water Temperature Day Schedule,    !- Monday ScheduleDay Name
    Hot Water Temperature Day Schedule,    !- Tuesday ScheduleDay Name
    Hot Water Temperature Day Schedule,    !- Wednesday ScheduleDay Name
    Hot Water Temperature Day Schedule,    !- Thursday ScheduleDay Name
    Hot Water Temperature Day Schedule,    !- Friday ScheduleDay Name
    Hot Water Temperature Day Schedule,    !- Saturday ScheduleDay Name
    Hot Water Temperature Day Schedule,    !- Holiday ScheduleDay Name
    Hot Water Temperature Day Schedule,    !- SummerDesignDay ScheduleDay Name
    Hot Water Temperature Day Schedule,    !- WinterDesignDay ScheduleDay Name
    Hot Water Temperature Day Schedule,    !- CustomDay1 ScheduleDay Name
    Hot Water Temperature Day Schedule;    !- CustomDay2 ScheduleDay Name

SCHEDULE:YEAR,
    AHU Setpoint Manager G,    !- Name
    AHU Setpoint Manager G Type Limits,    !- Schedule Type Limits Name
    AHU Setpoint Manager G Week Schedule,    !- ScheduleWeek Name 1
    1,                        !- Start Month 1
    1,                        !- Start Day 1
    12,                       !- End Month 1
    31;                       !- End Day 1

SCHEDULE:YEAR,
    AHU Setpoint Manager M,    !- Name
    AHU Setpoint Manager M Type Limits,    !- Schedule Type Limits Name
    AHU Setpoint Manager M Week Schedule,    !- ScheduleWeek Name 1
    1,                        !- Start Month 1
    1,                        !- Start Day 1
    12,                       !- End Month 1
    31;                       !- End Day 1

SCHEDULE:YEAR,
    AHU Setpoint Manager T,    !- Name
    AHU Setpoint Manager T Type Limits,    !- Schedule Type Limits Name
    AHU Setpoint Manager T Week Schedule,    !- ScheduleWeek Name 1
    1,                        !- Start Month 1
    1,                        !- Start Day 1
    12,                       !- End Month 1
    31;                       !- End Day 1

SCHEDULE:YEAR,
    Chilled Water Temp,       !- Name
    Chilled Water Temp Type Limits,    !- Schedule Type Limits Name
    Chilled Water Temp Week Schedule,    !- ScheduleWeek Name 1
    1,                        !- Start Month 1
    1,                        !- Start Day 1
    12,                       !- End Month 1
    31;                       !- End Day 1

SCHEDULE:YEAR,
    Hot Water Temperature,    !- Name
    Hot Water Temperature Type Limits,    !- Schedule Type Limits Name
    Hot Water Temperature Week Schedule,    !- ScheduleWeek Name 1
    1,                        !- Start Month 1
    1,                        !- Start Day 1
    12,                       !- End Month 1
    31;                       !- End Day 1

Schedule:Compact,
    PV_SCH,                   !- Name
    Fraction,                 !- Schedule Type Limits Name
    Through: 12/31,           !- Field 1
    For: AllDays,             !- Field 2
    Until: 24:00,             !- Field 3
    1;                        !- Field 4

Schedule:Compact,
    OCC_APT_SCH_STAY_HOME_FAMILY,    !- Name
    Fraction,                 !- Schedule Type Limits Name
    Through: 12/31,           !- Field 1
    For: AllDays,             !- Field 2
    Until: 7:00,              !- Field 3
    1.0,                      !- Field 4
    Until: 8:00,              !- Field 5
    0.85,                     !- Field 6
    Until: 9:00,              !- Field 7
    0.39,                     !- Field 8
    Until: 16:00,             !- Field 9
    0.25,                     !- Field 10
    Until: 17:00,             !- Field 11
    0.3,                      !- Field 12
    Until: 18:00,             !- Field 13
    0.52,                     !- Field 14
    Until: 21:00,             !- Field 15
    0.87,                     !- Field 16
    Until: 24:00,             !- Field 17
    1.0;                      !- Field 18

Schedule:Compact,
    OCC_APT_SCH_CORRIDOR,     !- Name
    Fraction,                 !- Schedule Type Limits Name
    Through: 12/31,           !- Field 1
    For: AllDays,             !- Field 2
    Until: 7:00,              !- Field 3
    1.0,                      !- Field 4
    Until: 8:00,              !- Field 5
    0.85,                     !- Field 6
    Until: 9:00,              !- Field 7
    0.39,                     !- Field 8
    Until: 16:00,             !- Field 9
    0.25,                     !- Field 10
    Until: 17:00,             !- Field 11
    0.3,                      !- Field 12
    Until: 18:00,             !- Field 13
    0.52,                     !- Field 14
    Until: 21:00,             !- Field 15
    0.87,                     !- Field 16
    Until: 24:00,             !- Field 17
    1.0;                      !- Field 18

Schedule:Compact,
    OCC_APT_SCH_WORKING_FAMILY,    !- Name
    Fraction,                 !- Schedule Type Limits Name
    Through: 12/31,           !- Field 1
    For: SummerDesignDay,     !- Field 2
    Until: 24:00,             !- Field 3
    1.0,                      !- Field 4
    For: WinterDesignDay,     !- Field 5
    Until: 24:00,             !- Field 6
    0.0,                      !- Field 7
    For: Weekday,             !- Field 8
    Until: 8:00,              !- Field 9
    1.0,                      !- Field 10
    Until: 18:00,             !- Field 11
    0.0,                      !- Field 12
    Until: 24:00,             !- Field 13
    1.0,                      !- Field 14
    For: Weekend AllOtherDays,    !- Field 15
    Until: 11:00,             !- Field 16
    1.0,                      !- Field 17
    Until: 15:00,             !- Field 18
    0.5,                      !- Field 19
    Until: 16:00,             !- Field 20
    0.0,                      !- Field 21
    Until: 24:00,             !- Field 22
    1.0;                      !- Field 23

Schedule:Compact,
    OCC_OFF_SCH,              !- Name
    Fraction,                 !- Schedule Type Limits Name
    Through: 12/31,           !- Field 1
    For: Weekdays,            !- Field 2
    Until: 8:00,              !- Field 3
    0.0,                      !- Field 4
    Until: 12:00,             !- Field 5
    1.0,                      !- Field 6
    Until: 13:00,             !- Field 7
    0.5,                      !- Field 8
    Until: 17:00,             !- Field 9
    1.0,                      !- Field 10
    Until: 24:00,             !- Field 11
    0.0,                      !- Field 12
    For AllOtherDays,         !- Field 13
    Until: 24:00,             !- Field 14
    0.0;                      !- Field 15

Schedule:Compact,
    OCC_OFF_w_SB_SCH,         !- Name
    Fraction,                 !- Schedule Type Limits Name
    Through: 12/31,           !- Field 1
    For: Weekdays,            !- Field 2
    Until: 01:00,             !- Field 3
    0,                        !- Field 4
    Until: 02:00,             !- Field 5
    0,                        !- Field 6
    Until: 03:00,             !- Field 7
    0,                        !- Field 8
    Until: 04:00,             !- Field 9
    0,                        !- Field 10
    Until: 05:00,             !- Field 11
    0,                        !- Field 12
    Until: 06:00,             !- Field 13
    0,                        !- Field 14
    Until: 07:00,             !- Field 15
    0,                        !- Field 16
    Until: 08:00,             !- Field 17
    0,                        !- Field 18
    Until: 09:00,             !- Field 19
    1,                        !- Field 20
    Until: 10:00,             !- Field 21
    1,                        !- Field 22
    Until: 11:00,             !- Field 23
    1,                        !- Field 24
    Until: 12:00,             !- Field 25
    1,                        !- Field 26
    Until: 13:00,             !- Field 27
    0,                        !- Field 28
    Until: 14:00,             !- Field 29
    1,                        !- Field 30
    Until: 15:00,             !- Field 31
    0,                        !- Field 32
    Until: 16:00,             !- Field 33
    1,                        !- Field 34
    Until: 17:00,             !- Field 35
    1,                        !- Field 36
    Until: 18:00,             !- Field 37
    0,                        !- Field 38
    Until: 19:00,             !- Field 39
    0,                        !- Field 40
    Until: 20:00,             !- Field 41
    0,                        !- Field 42
    Until: 21:00,             !- Field 43
    0,                        !- Field 44
    Until: 22:00,             !- Field 45
    0,                        !- Field 46
    Until: 23:00,             !- Field 47
    0,                        !- Field 48
    Until: 24:00,             !- Field 49
    0,                        !- Field 50
    For: AllOtherDays,        !- Field 51
    Until: 01:00,             !- Field 52
    0,                        !- Field 53
    Until: 02:00,             !- Field 54
    0,                        !- Field 55
    Until: 03:00,             !- Field 56
    0,                        !- Field 57
    Until: 04:00,             !- Field 58
    0,                        !- Field 59
    Until: 05:00,             !- Field 60
    0,                        !- Field 61
    Until: 06:00,             !- Field 62
    0,                        !- Field 63
    Until: 07:00,             !- Field 64
    0,                        !- Field 65
    Until: 08:00,             !- Field 66
    0,                        !- Field 67
    Until: 09:00,             !- Field 68
    0,                        !- Field 69
    Until: 10:00,             !- Field 70
    0,                        !- Field 71
    Until: 11:00,             !- Field 72
    0,                        !- Field 73
    Until: 12:00,             !- Field 74
    0,                        !- Field 75
    Until: 13:00,             !- Field 76
    0,                        !- Field 77
    Until: 14:00,             !- Field 78
    0,                        !- Field 79
    Until: 15:00,             !- Field 80
    0,                        !- Field 81
    Until: 16:00,             !- Field 82
    0,                        !- Field 83
    Until: 17:00,             !- Field 84
    0,                        !- Field 85
    Until: 18:00,             !- Field 86
    0,                        !- Field 87
    Until: 19:00,             !- Field 88
    0,                        !- Field 89
    Until: 20:00,             !- Field 90
    0,                        !- Field 91
    Until: 21:00,             !- Field 92
    0,                        !- Field 93
    Until: 22:00,             !- Field 94
    0,                        !- Field 95
    Until: 23:00,             !- Field 96
    0,                        !- Field 97
    Until: 24:00,             !- Field 98
    0;                        !- Field 99

SCHEDULE:COMPACT,
    ltg_sch_office,           !- Name
    Fraction,                 !- Schedule Type Limits Name
    Through: 12/31,           !- Field 1
    For: SummerDesignDay,     !- Field 2
    Until: 24:00,             !- Field 3
    1,                        !- Field 4
    For: WinterDesignDay,     !- Field 5
    Until: 24:00,             !- Field 6
    0,                        !- Field 7
    For: Weekdays,            !- Field 8
    Until: 8:00,              !- Field 9
    0.12397,                  !- Field 10
    Until: 12:00,             !- Field 11
    0.61987,                  !- Field 12
    Until: 13:00,             !- Field 13
    0.551,                    !- Field 14
    Until: 17:00,             !- Field 15
    0.61987,                  !- Field 16
    Until: 24:00,             !- Field 17
    0.12397,                  !- Field 18
    For: Saturday,            !- Field 19
    Until: 24:00,             !- Field 20
    0.12397,                  !- Field 21
    For: AllOtherDays,        !- Field 22
    Until: 24:00,             !- Field 23
    0.12397;                  !- Field 24

SCHEDULE:COMPACT,
    ltg_sch_corridor,         !- Name
    Fraction,                 !- Schedule Type Limits Name
    Through: 12/31,           !- Field 1
    For: SummerDesignDay,     !- Field 2
    Until: 24:00,             !- Field 3
    1,                        !- Field 4
    For: WinterDesignDay,     !- Field 5
    Until: 24:00,             !- Field 6
    0,                        !- Field 7
    For: Weekdays,            !- Field 8
    Until: 24:00,             !- Field 9
    0.625,                    !- Field 10
    For: Saturday,            !- Field 11
    Until: 24:00,             !- Field 12
    0.625,                    !- Field 13
    For: AllOtherDays,        !- Field 14
    Until: 24:00,             !- Field 15
    0.625;                    !- Field 16

SCHEDULE:COMPACT,
    ltg_sch_apartment_hardwired,    !- Name
    Fraction,                 !- Schedule Type Limits Name
    Through: 12/31,           !- Field 1
    For: SummerDesignDay,     !- Field 2
    Until: 24:00,             !- Field 3
    1,                        !- Field 4
    For: WinterDesignDay,     !- Field 5
    Until: 24:00,             !- Field 6