!- Windows Line endings 

Version,
    24.2;                     !- Version Identifier

SimulationControl,
    Yes,                      !- Do Zone Sizing Calculation
    Yes,                      !- Do System Sizing Calculation
    Yes,                      !- Do Plant Sizing Calculation
    No,                       !- Run Simulation for Sizing Periods
    Yes,                      !- Run Simulation for Weather File Run Periods
    No,                       !- Do HVAC Sizing Simulation for Sizing Periods
    1;                        !- Maximum Number of HVAC Sizing Simulation Passes

Building,
    HotelLarge,               !- Name
    0,                        !- North Axis
    City,                     !- Terrain
    0.04,                     !- Loads Convergence Tolerance Value
    0.2,                      !- Temperature Convergence Tolerance Value
    FullInteriorAndExterior,    !- Solar Distribution
    25,                       !- Maximum Number of Warmup Days
    6;                        !- Minimum Number of Warmup Days

ShadowCalculation,
    PolygonClipping,          !- Shading Calculation Method
    Periodic,                 !- Shading Calculation Update Frequency Method
    7,                        !- Shading Calculation Update Frequency
    15000;                    !- Maximum Figures in Shadow Overlap Calculations

SurfaceConvectionAlgorithm:Inside,
    TARP;                     !- Algorithm

SurfaceConvectionAlgorithm:Outside,
    DOE-2;                    !- Algorithm

HeatBalanceAlgorithm,
    ConductionTransferFunction,    !- Algorithm
    200;                      !- Surface Temperature Upper Limit

Timestep,
    6;                        !- Number of Timesteps per Hour

ConvergenceLimits,
    1,                        !- Minimum System Timestep
    20;                       !- Maximum HVAC Iterations

Site:Location,
    New.York-John.F.Kennedy.Intl.AP_NY_USA WMO=744860,    !- Name
    40.66,                    !- Latitude
    -73.8,                    !- Longitude
    -5,                       !- Time Zone
    7;                        !- Elevation

SizingPeriod:DesignDay,
    New.York-John.F.Kennedy.Intl.AP_NY_USA Ann Htg 99.6% Condns DB,    !- Name
    1,                        !- Month
    21,                       !- Day of Month
    WinterDesignDay,          !- Day Type
    -10.7,                    !- Maximum DryBulb Temperature
    0,                        !- Daily DryBulb Temperature Range
    DefaultMultipliers,       !- DryBulb Temperature Range Modifier Type
    ,                         !- DryBulb Temperature Range Modifier Day Schedule Name
    Wetbulb,                  !- Humidity Condition Type
    -10.7,                    !- Wetbulb or DewPoint at Maximum DryBulb
    ,                         !- Humidity Condition Day Schedule Name
    ,                         !- Humidity Ratio at Maximum DryBulb
    ,                         !- Enthalpy at Maximum DryBulb
    ,                         !- Daily WetBulb Temperature Range
    101241,                   !- Barometric Pressure
    7.5,                      !- Wind Speed
    320,                      !- Wind Direction
    No,                       !- Rain Indicator
    No,                       !- Snow Indicator
    No,                       !- Daylight Saving Time Indicator
    ASHRAEClearSky,           !- Solar Model Indicator
    ,                         !- Beam Solar Day Schedule Name
    ,                         !- Diffuse Solar Day Schedule Name
    ,                         !- ASHRAE Clear Sky Optical Depth for Beam Irradiance taub
    ,                         !- ASHRAE Clear Sky Optical Depth for Diffuse Irradiance taud
    0;                        !- Sky Clearness

SizingPeriod:DesignDay,
    New.York-John.F.Kennedy.Intl.AP_NY_USA Ann Clg .4% Condns DB=>MWB,    !- Name
    7,                        !- Month
    21,                       !- Day of Month
    SummerDesignDay,          !- Day Type
    32.1,                     !- Maximum DryBulb Temperature
    7.4,                      !- Daily DryBulb Temperature Range
    DefaultMultipliers,       !- DryBulb Temperature Range Modifier Type
    ,                         !- DryBulb Temperature Range Modifier Day Schedule Name
    Wetbulb,                  !- Humidity Condition Type
    23.1,                     !- Wetbulb or DewPoint at Maximum DryBulb
    ,                         !- Humidity Condition Day Schedule Name
    ,                         !- Humidity Ratio at Maximum DryBulb
    ,                         !- Enthalpy at Maximum DryBulb
    ,                         !- Daily WetBulb Temperature Range
    101241,                   !- Barometric Pressure
    5.6,                      !- Wind Speed
    230,                      !- Wind Direction
    No,                       !- Rain Indicator
    No,                       !- Snow Indicator
    No,                       !- Daylight Saving Time Indicator
    ASHRAETau,                !- Solar Model Indicator
    ,                         !- Beam Solar Day Schedule Name
    ,                         !- Diffuse Solar Day Schedule Name
    0.541,                    !- ASHRAE Clear Sky Optical Depth for Beam Irradiance taub
    1.8;                      !- ASHRAE Clear Sky Optical Depth for Diffuse Irradiance taud

RunPeriod,
    RUNPERIOD 1,              !- Name
    1,                        !- Begin Month
    1,                        !- Begin Day of Month
    ,                         !- Begin Year
    12,                       !- End Month
    31,                       !- End Day of Month
    ,                         !- End Year
    Sunday,                   !- Day of Week for Start Day
    No,                       !- Use Weather File Holidays and Special Days
    No,                       !- Use Weather File Daylight Saving Period
    No,                       !- Apply Weekend Holiday Rule
    Yes,                      !- Use Weather File Rain Indicators
    Yes;                      !- Use Weather File Snow Indicators

RunPeriodControl:SpecialDays,
    New Years Day,            !- Name
    January 1,                !- Start Date
    1,                        !- Duration
    Holiday;                  !- Special Day Type

RunPeriodControl:SpecialDays,
    Veterans Day,             !- Name
    November 11,              !- Start Date
    1,                        !- Duration
    Holiday;                  !- Special Day Type

RunPeriodControl:SpecialDays,
    Christmas,                !- Name
    December 25,              !- Start Date
    1,                        !- Duration
    Holiday;                  !- Special Day Type

RunPeriodControl:SpecialDays,
    Independence Day,         !- Name
    July 4,                   !- Start Date
    1,                        !- Duration
    Holiday;                  !- Special Day Type

RunPeriodControl:SpecialDays,
    MLK Day,                  !- Name
    3rd Monday in January,    !- Start Date
    1,                        !- Duration
    Holiday;                  !- Special Day Type

RunPeriodControl:SpecialDays,
    Presidents Day,           !- Name
    3rd Monday in February,    !- Start Date
    1,                        !- Duration
    Holiday;                  !- Special Day Type

RunPeriodControl:SpecialDays,
    Memorial Day,             !- Name
    Last Monday in May,       !- Start Date
    1,                        !- Duration
    Holiday;                  !- Special Day Type

RunPeriodControl:SpecialDays,
    Labor Day,                !- Name
    1st Monday in September,    !- Start Date
    1,                        !- Duration
    Holiday;                  !- Special Day Type

RunPeriodControl:SpecialDays,
    Columbus Day,             !- Name
    2nd Monday in October,    !- Start Date
    1,                        !- Duration
    Holiday;                  !- Special Day Type

RunPeriodControl:SpecialDays,
    Thanksgiving,             !- Name
    4th Thursday in November,    !- Start Date
    1,                        !- Duration
    Holiday;                  !- Special Day Type

RunPeriodControl:DaylightSavingTime,
    2nd Sunday in March,      !- Start Date
    1st Sunday in November;    !- End Date

Site:GroundTemperature:FCfactorMethod,
    14,                       !- January Ground Temperature
    7.3,                      !- February Ground Temperature
    3.3,                      !- March Ground Temperature
    1.2,                      !- April Ground Temperature
    -0.2,                     !- May Ground Temperature
    5.6,                      !- June Ground Temperature
    10.9,                     !- July Ground Temperature
    16.1,                     !- August Ground Temperature
    21.7,                     !- September Ground Temperature
    25,                       !- October Ground Temperature
    24.8,                     !- November Ground Temperature
    19.9;                     !- December Ground Temperature

Site:WaterMainsTemperature,
    Correlation,              !- Calculation Method
    ,                         !- Temperature Schedule Name
    12.4666666666667,         !- Annual Average Outdoor Air Temperature
    25.2;                     !- Maximum Difference In Monthly Average Outdoor Air Temperatures

ScheduleTypeLimits,
    Any Number;               !- Name

ScheduleTypeLimits,
    Fraction,                 !- Name
    0,                        !- Lower Limit Value
    1,                        !- Upper Limit Value
    CONTINUOUS;               !- Numeric Type

ScheduleTypeLimits,
    Temperature,              !- Name
    -60,                      !- Lower Limit Value
    200,                      !- Upper Limit Value
    CONTINUOUS;               !- Numeric Type

ScheduleTypeLimits,
    On/Off,                   !- Name
    0,                        !- Lower Limit Value
    1,                        !- Upper Limit Value
    DISCRETE;                 !- Numeric Type

ScheduleTypeLimits,
    Control Type,             !- Name
    0,                        !- Lower Limit Value
    4,                        !- Upper Limit Value
    DISCRETE;                 !- Numeric Type

ScheduleTypeLimits,
    Humidity,                 !- Name
    10,                       !- Lower Limit Value
    90,                       !- Upper Limit Value
    CONTINUOUS;               !- Numeric Type

ScheduleTypeLimits,
    Number;                   !- Name

SCHEDULETYPELIMITS,
    AHU Setpoint Manager 0 Schedule Type Limits,    !- Name
    0,                        !- Lower Limit Value
    100,                      !- Upper Limit Value
    Continuous,               !- Numeric Type
    Temperature;              !- Unit Type

SCHEDULETYPELIMITS,
    AHU Setpoint Manager Dehum 0 Schedule Type Limits,    !- Name
    0,                        !- Lower Limit Value
    100,                      !- Upper Limit Value
    Continuous,               !- Numeric Type
    Temperature;              !- Unit Type

SCHEDULETYPELIMITS,
    AHU Setpoint Manager 1 Schedule Type Limits,    !- Name
    0,                        !- Lower Limit Value
    100,                      !- Upper Limit Value
    Continuous,               !- Numeric Type
    Temperature;              !- Unit Type

SCHEDULETYPELIMITS,
    AHU Setpoint Manager Dehum 1 Schedule Type Limits,    !- Name
    0,                        !- Lower Limit Value
    100,                      !- Upper Limit Value
    Continuous,               !- Numeric Type
    Temperature;              !- Unit Type

SCHEDULETYPELIMITS,
    AHU Setpoint Manager 3 Schedule Type Limits,    !- Name
    0,                        !- Lower Limit Value
    100,                      !- Upper Limit Value
    Continuous,               !- Numeric Type
    Temperature;              !- Unit Type

SCHEDULETYPELIMITS,
    AHU Setpoint Manager Dehum 3 Schedule Type Limits,    !- Name
    0,                        !- Lower Limit Value
    100,                      !- Upper Limit Value
    Continuous,               !- Numeric Type
    Temperature;              !- Unit Type

SCHEDULETYPELIMITS,
    AHU Setpoint Manager 6 Schedule Type Limits,    !- Name
    0,                        !- Lower Limit Value
    100,                      !- Upper Limit Value
    Continuous,               !- Numeric Type
    Temperature;              !- Unit Type

SCHEDULETYPELIMITS,
    AHU Setpoint Manager Dehum 6 Schedule Type Limits,    !- Name
    0,                        !- Lower Limit Value
    100,                      !- Upper Limit Value
    Continuous,               !- Numeric Type
    Temperature;              !- Unit Type

SCHEDULETYPELIMITS,
    Chw Temp Schedule Type Limits,    !- Name
    0,                        !- Lower Limit Value
    100,                      !- Upper Limit Value
    Continuous,               !- Numeric Type
    Temperature;              !- Unit Type

SCHEDULETYPELIMITS,
    Hot Water Temperature Schedule Type Limits,    !- Name
    0,                        !- Lower Limit Value
    100,                      !- Upper Limit Value
    Continuous,               !- Numeric Type
    Temperature;              !- Unit Type

Schedule:Compact,
    PV_SCH,                   !- Name
    Fraction,                 !- Schedule Type Limits Name
    Through: 12/31,           !- Field 1
    For: AllDays,             !- Field 2
    Until: 24:00,             !- Field 3
    1;                        !- Field 4

SCHEDULE:COMPACT,
    ltg_sch_kitchen,          !- Name
    Fraction,                 !- Schedule Type Limits Name
    Through: 12/31,           !- Field 1
    For: SummerDesignDay,     !- Field 2
    Until: 24:00,             !- Field 3
    1,                        !- Field 4
    For: WinterDesignDay,     !- Field 5
    Until: 24:00,             !- Field 6
    0,                        !- Field 7
    For: Weekdays,            !- Field 8
    Until: 1:00,              !- Field 9
    0.132125,                 !- Field 10
    Until: 2:00,              !- Field 11
    0.09909375,               !- Field 12
    Until: 5:00,              !- Field 13
    0.0660625,                !- Field 14
    Until: 6:00,              !- Field 15
    0.132125,                 !- Field 16
    Until: 7:00,              !- Field 17
    0.26425,                  !- Field 18
    Until: 8:00,              !- Field 19
    0.3303125,                !- Field 20
    Until: 10:00,             !- Field 21
    0.26425,                  !- Field 22
    Until: 18:00,             !- Field 23
    0.16515625,               !- Field 24
    Until: 19:00,             !- Field 25
    0.396375,                 !- Field 26
    Until: 20:00,             !- Field 27
    0.5285,                   !- Field 28
    Until: 21:00,             !- Field 29
    0.5945625,                !- Field 30
    Until: 22:00,             !- Field 31
    0.5285,                   !- Field 32
    Until: 23:00,             !- Field 33
    0.396375,                 !- Field 34
    Until: 24:00,             !- Field 35
    0.1981875,                !- Field 36
    For: Saturday,            !- Field 37
    Until: 2:00,              !- Field 38
    0.132125,                 !- Field 39
    Until: 6:00,              !- Field 40
    0.0660625,                !- Field 41
    Until: 8:00,              !- Field 42
    0.1981875,                !- Field 43
    Until: 10:00,             !- Field 44
    0.26425,                  !- Field 45
    Until: 11:00,             !- Field 46
    0.1981875,                !- Field 47
    Until: 18:00,             !- Field 48
    0.16515625,               !- Field 49
    Until: 19:00,             !- Field 50
    0.396375,                 !- Field 51
    Until: 22:00,             !- Field 52
    0.4624375,                !- Field 53
    Until: 23:00,             !- Field 54
    0.396375,                 !- Field 55
    Until: 24:00,             !- Field 56
    0.1981875,                !- Field 57
    For: AllOtherDays,        !- Field 58
    Until: 2:00,              !- Field 59
    0.1981875,                !- Field 60
    Until: 6:00,              !- Field 61
    0.132125,                 !- Field 62
    Until: 7:00,              !- Field 63
    0.1981875,                !- Field 64
    Until: 9:00,              !- Field 65
    0.26425,                  !- Field 66
    Until: 13:00,             !- Field 67
    0.1981875,                !- Field 68
    Until: 18:00,             !- Field 69
    0.132125,                 !- Field 70
    Until: 19:00,             !- Field 71
    0.3303125,                !- Field 72
    Until: 20:00,             !- Field 73
    0.4624375,                !- Field 74
    Until: 21:00,             !- Field 75
    0.5285,                   !- Field 76
    Until: 22:00,             !- Field 77
    0.396375,                 !- Field 78
    Until: 23:00,             !- Field 79
    0.3303125,                !- Field 80
    Until: 24:00,             !- Field 81
    0.1981875;                !- Field 82

SCHEDULE:COMPACT,
    ltg_sch_dining,           !- Name
    Fraction,                 !- Schedule Type Limits Name
    Through: 12/31,           !- Field 1
    For: SummerDesignDay,     !- Field 2
    Until: 24:00,             !- Field 3
    1,                        !- Field 4
    For: WinterDesignDay,     !- Field 5
    Until: 24:00,             !- Field 6
    0,                        !- Field 7
    For: Weekdays,            !- Field 8
    Until: 1:00,              !- Field 9
    0.1226875,                !- Field 10
    Until: 2:00,              !- Field 11
    0.092015625,              !- Field 12
    Until: 5:00,              !- Field 13
    0.06134375,               !- Field 14
    Until: 6:00,              !- Field 15
    0.1226875,                !- Field 16
    Until: 7:00,              !- Field 17
    0.245375,                 !- Field 18
    Until: 8:00,              !- Field 19
    0.30671875,               !- Field 20
    Until: 10:00,             !- Field 21
    0.245375,                 !- Field 22
    Until: 18:00,             !- Field 23
    0.153359375,              !- Field 24
    Until: 19:00,             !- Field 25
    0.3680625,                !- Field 26
    Until: 20:00,             !- Field 27
    0.49075,                  !- Field 28
    Until: 21:00,             !- Field 29
    0.55209375,               !- Field 30
    Until: 22:00,             !- Field 31
    0.49075,                  !- Field 32
    Until: 23:00,             !- Field 33
    0.3680625,                !- Field 34
    Until: 24:00,             !- Field 35
    0.18403125,               !- Field 36
    For: Saturday,            !- Field 37
    Until: 2:00,              !- Field 38
    0.1226875,                !- Field 39
    Until: 6:00,              !- Field 40
    0.06134375,               !- Field 41
    Until: 8:00,              !- Field 42
    0.18403125,               !- Field 43
    Until: 10:00,             !- Field 44
    0.245375,                 !- Field 45
    Until: 11:00,             !- Field 46
    0.18403125,               !- Field 47
    Until: 18:00,             !- Field 48
    0.153359375,              !- Field 49
    Until: 19:00,             !- Field 50
    0.3680625,                !- Field 51
    Until: 22:00,             !- Field 52
    0.42940625,               !- Field 53
    Until: 23:00,             !- Field 54
    0.3680625,                !- Field 55
    Until: 24:00,             !- Field 56
    0.18403125,               !- Field 57
    For: AllOtherDays,        !- Field 58
    Until: 2:00,              !- Field 59
    0.18403125,               !- Field 60
    Until: 6:00,              !- Field 61
    0.1226875,                !- Field 62
    Until: 7:00,              !- Field 63
    0.18403125,               !- Field 64
    Until: 9:00,              !- Field 65
    0.245375,                 !- Field 66
    Until: 13:00,             !- Field 67
    0.18403125,               !- Field 68
    Until: 18:00,             !- Field 69
    0.1226875,                !- Field 70
    Until: 19:00,             !- Field 71
    0.30671875,               !- Field 72
    Until: 20:00,             !- Field 73
    0.42940625,               !- Field 74
    Until: 21:00,             !- Field 75
    0.49075,                  !- Field 76
    Until: 22:00,             !- Field 77
    0.3680625,                !- Field 78
    Until: 23:00,             !- Field 79
    0.30671875,               !- Field 80
    Until: 24:00,             !- Field 81
    0.18403125;               !- Field 82

SCHEDULE:COMPACT,
    ltg_sch_basement,         !- Name
    Fraction,                 !- Schedule Type Limits Name
    Through: 12/31,           !- Field 1
    For: SummerDesignDay,     !- Field 2
    Until: 24:00,             !- Field 3
    1,                        !- Field 4
    For: WinterDesignDay,     !- Field 5
    Until: 24:00,             !- Field 6
    0,                        !- Field 7
    For: Weekdays,            !- Field 8
    Until: 1:00,              !- Field 9
    0.13687656211125,         !- Field 10
    Until: 2:00,              !- Field 11
    0.102662096968125,        !- Field 12
    Until: 5:00,              !- Field 13
    0.068438281055625,        !- Field 14
    Until: 6:00,              !- Field 15
    0.13687656211125,         !- Field 16
    Until: 7:00,              !- Field 17
    0.2737531242225,          !- Field 18
    Until: 8:00,              !- Field 19
    0.342191405278125,        !- Field 20
    Until: 10:00,             !- Field 21
    0.2737531242225,          !- Field 22
    Until: 18:00,             !- Field 23
    0.17110037802375,         !- Field 24
    Until: 19:00,             !- Field 25
    0.41062968633375,         !- Field 26
    Until: 20:00,             !- Field 27
    0.547515599214375,        !- Field 28
    Until: 21:00,             !- Field 29
    0.61595388027,            !- Field 30
    Until: 22:00,             !- Field 31
    0.547515599214375,        !- Field 32
    Until: 23:00,             !- Field 33
    0.41062968633375,         !- Field 34
    Until: 24:00,             !- Field 35
    0.205314843166875,        !- Field 36
    For: Saturday,            !- Field 37
    Until: 2:00,              !- Field 38
    0.13687656211125,         !- Field 39
    Until: 6:00,              !- Field 40
    0.068438281055625,        !- Field 41
    Until: 8:00,              !- Field 42
    0.205314843166875,        !- Field 43
    Until: 10:00,             !- Field 44
    0.2737531242225,          !- Field 45
    Until: 11:00,             !- Field 46
    0.205314843166875,        !- Field 47
    Until: 18:00,             !- Field 48
    0.17110037802375,         !- Field 49
    Until: 19:00,             !- Field 50
    0.41062968633375,         !- Field 51
    Until: 22:00,             !- Field 52
    0.47907731815875,         !- Field 53
    Until: 23:00,             !- Field 54
    0.41062968633375,         !- Field 55
    Until: 24:00,             !- Field 56
    0.205314843166875,        !- Field 57
    For: AllOtherDays,        !- Field 58
    Until: 2:00,              !- Field 59
    0.205314843166875,        !- Field 60
    Until: 6:00,              !- Field 61
    0.13687656211125,         !- Field 62
    Until: 7:00,              !- Field 63
    0.205314843166875,        !- Field 64
    Until: 9:00,              !- Field 65
    0.2737531242225,          !- Field 66
    Until: 13:00,             !- Field 67
    0.205314843166875,        !- Field 68
    Until: 18:00,             !- Field 69
    0.13687656211125,         !- Field 70
    Until: 19:00,             !- Field 71
    0.342191405278125,        !- Field 72
    Until: 20:00,             !- Field 73
    0.47907731815875,         !- Field 74
    Until: 21:00,             !- Field 75
    0.547515599214375,        !- Field 76
    Until: 22:00,             !- Field 77
    0.41062968633375,         !- Field 78
    Until: 23:00,             !- Field 79
    0.342191405278125,        !- Field 80
    Until: 24:00,             !- Field 81
    0.205314843166875;        !- Field 82

SCHEDULE:COMPACT,
    ltg_sch_lobby,            !- Name
    Fraction,                 !- Schedule Type Limits Name
    Through: 12/31,           !- Field 1
    For: SummerDesignDay,     !- Field 2
    Until: 24:00,             !- Field 3
    1,                        !- Field 4
    For: WinterDesignDay,     !- Field 5
    Until: 24:00,             !- Field 6
    0,                        !- Field 7
    For: Weekdays,            !- Field 8
    Until: 1:00,              !- Field 9
    0.1415625,                !- Field 10
    Until: 2:00,              !- Field 11
    0.106171875,              !- Field 12
    Until: 5:00,              !- Field 13
    0.07078125,               !- Field 14
    Until: 6:00,              !- Field 15
    0.1415625,                !- Field 16
    Until: 7:00,              !- Field 17
    0.283125,                 !- Field 18
    Until: 8:00,              !- Field 19
    0.35390625,               !- Field 20
    Until: 10:00,             !- Field 21
    0.283125,                 !- Field 22
    Until: 18:00,             !- Field 23
    0.176953125,              !- Field 24
    Until: 19:00,             !- Field 25
    0.4246875,                !- Field 26
    Until: 20:00,             !- Field 27
    0.56625,                  !- Field 28
    Until: 21:00,             !- Field 29
    0.63703125,               !- Field 30
    Until: 22:00,             !- Field 31
    0.56625,                  !- Field 32
    Until: 23:00,             !- Field 33
    0.4246875,                !- Field 34
    Until: 24:00,             !- Field 35
    0.21234375,               !- Field 36
    For: Saturday,            !- Field 37
    Until: 2:00,              !- Field 38
    0.1415625,                !- Field 39
    Until: 6:00,              !- Field 40
    0.07078125,               !- Field 41
    Until: 8:00,              !- Field 42
    0.21234375,               !- Field 43
    Until: 10:00,             !- Field 44
    0.283125,                 !- Field 45
    Until: 11:00,             !- Field 46
    0.21234375,               !- Field 47
    Until: 18:00,             !- Field 48
    0.176953125,              !- Field 49
    Until: 19:00,             !- Field 50
    0.4246875,                !- Field 51
    Until: 22:00,             !- Field 52
    0.49546875,               !- Field 53
    Until: 23:00,             !- Field 54
    0.4246875,                !- Field 55
    Until: 24:00,             !- Field 56
    0.21234375,               !- Field 57
    For: AllOtherDays,        !- Field 58
    Until: 2:00,              !- Field 59
    0.21234375,               !- Field 60
    Until: 6:00,              !- Field 61
    0.1415625,                !- Field 62
    Until: 7:00,              !- Field 63
    0.21234375,               !- Field 64
    Until: 9:00,              !- Field 65
    0.283125,                 !- Field 66
    Until: 13:00,             !- Field 67
    0.21234375,               !- Field 68
    Until: 18:00,             !- Field 69
    0.1415625,                !- Field 70
    Until: 19:00,             !- Field 71
    0.35390625,               !- Field 72
    Until: 20:00,             !- Field 73
    0.49546875,               !- Field 74
    Until: 21:00,             !- Field 75
    0.56625,                  !- Field 76
    Until: 22:00,             !- Field 77
    0.4246875,                !- Field 78
    Until: 23:00,             !- Field 79
    0.35390625,               !- Field 80
    Until: 24:00,             !- Field 81
    0.21234375;               !- Field 82

SCHEDULE:COMPACT,
    ltg_sch_storage,          !- Name
    Fraction,                 !- Schedule Type Limits Name
    Through: 12/31,           !- Field 1
    For: SummerDesignDay,     !- Field 2
    Until: 24:00,             !- Field 3
    1,                        !- Field 4
    For: WinterDesignDay,     !- Field 5
    Until: 24:00,             !- Field 6
    0,                        !- Field 7
    For: Weekdays,            !- Field 8
    Until: 1:00,              !- Field 9
    0.1008396875,             !- Field 10
    Until: 2:00,              !- Field 11
    0.075632125,              !- Field 12
    Until: 5:00,              !- Field 13
    0.0504245625,             !- Field 14
    Until: 6:00,              !- Field 15
    0.1008396875,             !- Field 16
    Until: 7:00,              !- Field 17
    0.201679375,              !- Field 18
    Until: 8:00,              !- Field 19
    0.2521039375,             !- Field 20
    Until: 10:00,             !- Field 21
    0.201679375,              !- Field 22
    Until: 18:00,             !- Field 23
    0.12604725,               !- Field 24
    Until: 19:00,             !- Field 25
    0.3025190625,             !- Field 26
    Until: 20:00,             !- Field 27
    0.40335875,               !- Field 28
    Until: 21:00,             !- Field 29
    0.4537833125,             !- Field 30
    Until: 22:00,             !- Field 31
    0.40335875,               !- Field 32
    Until: 23:00,             !- Field 33
    0.3025190625,             !- Field 34
    Until: 24:00,             !- Field 35
    0.15126425,               !- Field 36
    For: Saturday,            !- Field 37
    Until: 2:00,              !- Field 38
    0.1008396875,             !- Field 39
    Until: 6:00,              !- Field 40
    0.0504245625,             !- Field 41
    Until: 8:00,              !- Field 42
    0.15126425,               !- Field 43
    Until: 10:00,             !- Field 44
    0.201679375,              !- Field 45
    Until: 11:00,             !- Field 46
    0.15126425,               !- Field 47
    Until: 18:00,             !- Field 48
    0.12604725,               !- Field 49
    Until: 19:00,             !- Field 50
    0.3025190625,             !- Field 51
    Until: 22:00,             !- Field 52
    0.352943625,              !- Field 53