!- Windows Line endings 

Version,
    24.2;                     !- Version Identifier

SimulationControl,
    YES,                      !- Do Zone Sizing Calculation
    YES,                      !- Do System Sizing Calculation
    YES,                      !- Do Plant Sizing Calculation
    YES,                      !- Run Simulation for Sizing Periods
    NO,                       !- Run Simulation for Weather File Run Periods
    No,                       !- Do HVAC Sizing Simulation for Sizing Periods
    1;                        !- Maximum Number of HVAC Sizing Simulation Passes

Building,
    Ref Bldg Small Office New2004_v1.3_5.0,    !- Name
    0,                        !- North Axis
    City,                     !- Terrain
    0.04,                     !- Loads Convergence Tolerance Value
    0.2,                      !- Temperature Convergence Tolerance Value
    FullInteriorAndExterior,    !- Solar Distribution
    25,                       !- Maximum Number of Warmup Days
    6;                        !- Minimum Number of Warmup Days

ShadowCalculation,
    PolygonClipping,          !- Shading Calculation Method
    Periodic,                 !- Shading Calculation Update Frequency Method
    7,                        !- Shading Calculation Update Frequency
    15000;                    !- Maximum Figures in Shadow Overlap Calculations

SurfaceConvectionAlgorithm:Inside,
    TARP;                     !- Algorithm

SurfaceConvectionAlgorithm:Outside,
    DOE-2;                    !- Algorithm

HeatBalanceAlgorithm,
    ConductionTransferFunction,    !- Algorithm
    200;                      !- Surface Temperature Upper Limit

ZoneAirHeatBalanceAlgorithm,
    AnalyticalSolution;       !- Algorithm

Timestep,
    6;                        !- Number of Timesteps per Hour

ConvergenceLimits,
    2,                        !- Minimum System Timestep
    25;                       !- Maximum HVAC Iterations

Site:Location,
    USA IL-CHICAGO-OHARE,     !- Name
    41.77,                    !- Latitude
    -87.75,                   !- Longitude
    -6,                       !- Time Zone
    190;                      !- Elevation

SizingPeriod:DesignDay,
    CHICAGO Ann Htg 99.6% Condns DB,    !- Name
    1,                        !- Month
    21,                       !- Day of Month
    WinterDesignDay,          !- Day Type
    -20.6,                    !- Maximum DryBulb Temperature
    0,                        !- Daily DryBulb Temperature Range
    ,                         !- DryBulb Temperature Range Modifier Type
    ,                         !- DryBulb Temperature Range Modifier Day Schedule Name
    Wetbulb,                  !- Humidity Condition Type
    -20.6,                    !- Wetbulb or DewPoint at Maximum DryBulb
    ,                         !- Humidity Condition Day Schedule Name
    ,                         !- Humidity Ratio at Maximum DryBulb
    ,                         !- Enthalpy at Maximum DryBulb
    ,                         !- Daily WetBulb Temperature Range
    99063,                    !- Barometric Pressure
    4.9,                      !- Wind Speed
    270,                      !- Wind Direction
    No,                       !- Rain Indicator
    No,                       !- Snow Indicator
    No,                       !- Daylight Saving Time Indicator
    ASHRAEClearSky,           !- Solar Model Indicator
    ,                         !- Beam Solar Day Schedule Name
    ,                         !- Diffuse Solar Day Schedule Name
    ,                         !- ASHRAE Clear Sky Optical Depth for Beam Irradiance taub
    ,                         !- ASHRAE Clear Sky Optical Depth for Diffuse Irradiance taud
    0;                        !- Sky Clearness

SizingPeriod:DesignDay,
    CHICAGO Ann Clg .4% Condns WB=>MDB,    !- Name
    7,                        !- Month
    21,                       !- Day of Month
    SummerDesignDay,          !- Day Type
    31.2,                     !- Maximum DryBulb Temperature
    10.7,                     !- Daily DryBulb Temperature Range
    ,                         !- DryBulb Temperature Range Modifier Type
    ,                         !- DryBulb Temperature Range Modifier Day Schedule Name
    Wetbulb,                  !- Humidity Condition Type
    25.5,                     !- Wetbulb or DewPoint at Maximum DryBulb
    ,                         !- Humidity Condition Day Schedule Name
    ,                         !- Humidity Ratio at Maximum DryBulb
    ,                         !- Enthalpy at Maximum DryBulb
    ,                         !- Daily WetBulb Temperature Range
    99063,                    !- Barometric Pressure
    5.3,                      !- Wind Speed
    230,                      !- Wind Direction
    No,                       !- Rain Indicator
    No,                       !- Snow Indicator
    No,                       !- Daylight Saving Time Indicator
    ASHRAEClearSky,           !- Solar Model Indicator
    ,                         !- Beam Solar Day Schedule Name
    ,                         !- Diffuse Solar Day Schedule Name
    ,                         !- ASHRAE Clear Sky Optical Depth for Beam Irradiance taub
    ,                         !- ASHRAE Clear Sky Optical Depth for Diffuse Irradiance taud
    1;                        !- Sky Clearness

RunPeriod,
    Annual,                   !- Name
    1,                        !- Begin Month
    1,                        !- Begin Day of Month
    ,                         !- Begin Year
    12,                       !- End Month
    31,                       !- End Day of Month
    ,                         !- End Year
    Sunday,                   !- Day of Week for Start Day
    No,                       !- Use Weather File Holidays and Special Days
    No,                       !- Use Weather File Daylight Saving Period
    No,                       !- Apply Weekend Holiday Rule
    Yes,                      !- Use Weather File Rain Indicators
    Yes;                      !- Use Weather File Snow Indicators

RunPeriodControl:SpecialDays,
    New Years Day,            !- Name
    January 1,                !- Start Date
    1,                        !- Duration
    Holiday;                  !- Special Day Type

RunPeriodControl:SpecialDays,
    Veterans Day,             !- Name
    November 11,              !- Start Date
    1,                        !- Duration
    Holiday;                  !- Special Day Type

RunPeriodControl:SpecialDays,
    Christmas,                !- Name
    December 25,              !- Start Date
    1,                        !- Duration
    Holiday;                  !- Special Day Type

RunPeriodControl:SpecialDays,
    Independence Day,         !- Name
    July 4,                   !- Start Date
    1,                        !- Duration
    Holiday;                  !- Special Day Type

RunPeriodControl:SpecialDays,
    MLK Day,                  !- Name
    3rd Monday in January,    !- Start Date
    1,                        !- Duration
    Holiday;                  !- Special Day Type

RunPeriodControl:SpecialDays,
    Presidents Day,           !- Name
    3rd Monday in February,    !- Start Date
    1,                        !- Duration
    Holiday;                  !- Special Day Type

RunPeriodControl:SpecialDays,
    Memorial Day,             !- Name
    Last Monday in May,       !- Start Date
    1,                        !- Duration
    Holiday;                  !- Special Day Type

RunPeriodControl:SpecialDays,
    Labor Day,                !- Name
    1st Monday in September,    !- Start Date
    1,                        !- Duration
    Holiday;                  !- Special Day Type

RunPeriodControl:SpecialDays,
    Columbus Day,             !- Name
    2nd Monday in October,    !- Start Date
    1,                        !- Duration
    Holiday;                  !- Special Day Type

RunPeriodControl:SpecialDays,
    Thanksgiving,             !- Name
    4th Thursday in November,    !- Start Date
    1,                        !- Duration
    Holiday;                  !- Special Day Type

RunPeriodControl:DaylightSavingTime,
    2nd Sunday in March,      !- Start Date
    1st Sunday in November;    !- End Date

Site:GroundTemperature:BuildingSurface,
    19.527,                   !- January Ground Temperature
    19.502,                   !- February Ground Temperature
    19.536,                   !- March Ground Temperature
    19.598,                   !- April Ground Temperature
    20.002,                   !- May Ground Temperature
    21.64,                    !- June Ground Temperature
    22.225,                   !- July Ground Temperature
    22.375,                   !- August Ground Temperature
    21.449,                   !- September Ground Temperature
    20.121,                   !- October Ground Temperature
    19.802,                   !- November Ground Temperature
    19.633;                   !- December Ground Temperature

Site:WaterMainsTemperature,
    CORRELATION,              !- Calculation Method
    ,                         !- Temperature Schedule Name
    9.69,                     !- Annual Average Outdoor Air Temperature
    28.1;                     !- Maximum Difference In Monthly Average Outdoor Air Temperatures

ScheduleTypeLimits,
    Any Number;               !- Name

ScheduleTypeLimits,
    Fraction,                 !- Name
    0,                        !- Lower Limit Value
    1,                        !- Upper Limit Value
    CONTINUOUS;               !- Numeric Type

ScheduleTypeLimits,
    Temperature,              !- Name
    -60,                      !- Lower Limit Value
    200,                      !- Upper Limit Value
    CONTINUOUS;               !- Numeric Type

ScheduleTypeLimits,
    On/Off,                   !- Name
    0,                        !- Lower Limit Value
    1,                        !- Upper Limit Value
    DISCRETE;                 !- Numeric Type

ScheduleTypeLimits,
    Control Type,             !- Name
    0,                        !- Lower Limit Value
    4,                        !- Upper Limit Value
    DISCRETE;                 !- Numeric Type

ScheduleTypeLimits,
    Humidity,                 !- Name
    10,                       !- Lower Limit Value
    90,                       !- Upper Limit Value
    CONTINUOUS;               !- Numeric Type

ScheduleTypeLimits,
    Number;                   !- Name

SCHEDULETYPELIMITS,
    AHU Setpoint Manager Type Limits,    !- Name
    0,                        !- Lower Limit Value
    100,                      !- Upper Limit Value
    Continuous,               !- Numeric Type
    Temperature;              !- Unit Type

SCHEDULETYPELIMITS,
    Chilled Water Temperature Type Limits,    !- Name
    0,                        !- Lower Limit Value
    100,                      !- Upper Limit Value
    Continuous,               !- Numeric Type
    Temperature;              !- Unit Type

SCHEDULETYPELIMITS,
    Hot Water Temperature Type Limits,    !- Name
    0,                        !- Lower Limit Value
    100,                      !- Upper Limit Value
    Continuous,               !- Numeric Type
    Temperature;              !- Unit Type

SCHEDULE:DAY:INTERVAL,
    AHU Setpoint Manager Day Schedule,    !- Name
    AHU Setpoint Manager Type Limits,    !- Schedule Type Limits Name
    No,                       !- Interpolate to Timestep
    24:00,                    !- Time 1
    12.8;                     !- Value Until Time 1

SCHEDULE:DAY:INTERVAL,
    Chilled Water Temperature Day Schedule,    !- Name
    Chilled Water Temperature Type Limits,    !- Schedule Type Limits Name
    No,                       !- Interpolate to Timestep
    24:00,                    !- Time 1
    7;                        !- Value Until Time 1

SCHEDULE:DAY:INTERVAL,
    Hot Water Temperature Day Schedule,    !- Name
    Hot Water Temperature Type Limits,    !- Schedule Type Limits Name
    No,                       !- Interpolate to Timestep
    24:00,                    !- Time 1
    60;                       !- Value Until Time 1

SCHEDULE:WEEK:DAILY,
    AHU Setpoint Manager Week Schedule,    !- Name
    AHU Setpoint Manager Day Schedule,    !- Sunday ScheduleDay Name
    AHU Setpoint Manager Day Schedule,    !- Monday ScheduleDay Name
    AHU Setpoint Manager Day Schedule,    !- Tuesday ScheduleDay Name
    AHU Setpoint Manager Day Schedule,    !- Wednesday ScheduleDay Name
    AHU Setpoint Manager Day Schedule,    !- Thursday ScheduleDay Name
    AHU Setpoint Manager Day Schedule,    !- Friday ScheduleDay Name
    AHU Setpoint Manager Day Schedule,    !- Saturday ScheduleDay Name
    AHU Setpoint Manager Day Schedule,    !- Holiday ScheduleDay Name
    AHU Setpoint Manager Day Schedule,    !- SummerDesignDay ScheduleDay Name
    AHU Setpoint Manager Day Schedule,    !- WinterDesignDay ScheduleDay Name
    AHU Setpoint Manager Day Schedule,    !- CustomDay1 ScheduleDay Name
    AHU Setpoint Manager Day Schedule;    !- CustomDay2 ScheduleDay Name

SCHEDULE:WEEK:DAILY,
    Chilled Water Temperature Week Schedule,    !- Name
    Chilled Water Temperature Day Schedule,    !- Sunday ScheduleDay Name
    Chilled Water Temperature Day Schedule,    !- Monday ScheduleDay Name
    Chilled Water Temperature Day Schedule,    !- Tuesday ScheduleDay Name
    Chilled Water Temperature Day Schedule,    !- Wednesday ScheduleDay Name
    Chilled Water Temperature Day Schedule,    !- Thursday ScheduleDay Name
    Chilled Water Temperature Day Schedule,    !- Friday ScheduleDay Name
    Chilled Water Temperature Day Schedule,    !- Saturday ScheduleDay Name
    Chilled Water Temperature Day Schedule,    !- Holiday ScheduleDay Name
    Chilled Water Temperature Day Schedule,    !- SummerDesignDay ScheduleDay Name
    Chilled Water Temperature Day Schedule,    !- WinterDesignDay ScheduleDay Name
    Chilled Water Temperature Day Schedule,    !- CustomDay1 ScheduleDay Name
    Chilled Water Temperature Day Schedule;    !- CustomDay2 ScheduleDay Name

SCHEDULE:WEEK:DAILY,
    Hot Water Temperature Week Schedule,    !- Name
    Hot Water Temperature Day Schedule,    !- Sunday ScheduleDay Name
    Hot Water Temperature Day Schedule,    !- Monday ScheduleDay Name
    Hot Water Temperature Day Schedule,    !- Tuesday ScheduleDay Name
    Hot Water Temperature Day Schedule,    !- Wednesday ScheduleDay Name
    Hot Water Temperature Day Schedule,    !- Thursday ScheduleDay Name
    Hot Water Temperature Day Schedule,    !- Friday ScheduleDay Name
    Hot Water Temperature Day Schedule,    !- Saturday ScheduleDay Name
    Hot Water Temperature Day Schedule,    !- Holiday ScheduleDay Name
    Hot Water Temperature Day Schedule,    !- SummerDesignDay ScheduleDay Name
    Hot Water Temperature Day Schedule,    !- WinterDesignDay ScheduleDay Name
    Hot Water Temperature Day Schedule,    !- CustomDay1 ScheduleDay Name
    Hot Water Temperature Day Schedule;    !- CustomDay2 ScheduleDay Name

SCHEDULE:YEAR,
    AHU Setpoint Manager,     !- Name
    AHU Setpoint Manager Type Limits,    !- Schedule Type Limits Name
    AHU Setpoint Manager Week Schedule,    !- ScheduleWeek Name 1
    1,                        !- Start Month 1
    1,                        !- Start Day 1
    12,                       !- End Month 1
    31;                       !- End Day 1

SCHEDULE:YEAR,
    Chilled Water Temperature,    !- Name
    Chilled Water Temperature Type Limits,    !- Schedule Type Limits Name
    Chilled Water Temperature Week Schedule,    !- ScheduleWeek Name 1
    1,                        !- Start Month 1
    1,                        !- Start Day 1
    12,                       !- End Month 1
    31;                       !- End Day 1

SCHEDULE:YEAR,
    Hot Water Temperature,    !- Name
    Hot Water Temperature Type Limits,    !- Schedule Type Limits Name
    Hot Water Temperature Week Schedule,    !- ScheduleWeek Name 1
    1,                        !- Start Month 1
    1,                        !- Start Day 1
    12,                       !- End Month 1
    31;                       !- End Day 1

Schedule:Compact,
    ALWAYS_ON,                !- Name
    On/Off,                   !- Schedule Type Limits Name
    Through: 12/31,           !- Field 1
    For: AllDays,             !- Field 2
    Until: 24:00,             !- Field 3
    1;                        !- Field 4

Schedule:Compact,
    INFIL_QUARTER_ON_SCH,     !- Name
    Fraction,                 !- Schedule Type Limits Name
    Through: 12/31,           !- Field 1
    For: Weekdays SummerDesignDay,    !- Field 2
    Until: 06:00,             !- Field 3
    1.0,                      !- Field 4
    Until: 22:00,             !- Field 5
    0.25,                     !- Field 6
    Until: 24:00,             !- Field 7
    1.0,                      !- Field 8
    For: Saturday WinterDesignDay,    !- Field 9
    Until: 06:00,             !- Field 10
    1.0,                      !- Field 11
    Until: 18:00,             !- Field 12
    0.25,                     !- Field 13
    Until: 24:00,             !- Field 14
    1.0,                      !- Field 15
    For: Sunday Holidays AllOtherDays,    !- Field 16
    Until: 24:00,             !- Field 17
    1.0;                      !- Field 18

Schedule:Compact,
    BLDG_OCC_SCH,             !- Name
    Fraction,                 !- Schedule Type Limits Name
    Through: 12/31,           !- Field 1
    For: SummerDesignDay,     !- Field 2
    Until: 06:00,             !- Field 3
    0.0,                      !- Field 4
    Until: 22:00,             !- Field 5
    1.0,                      !- Field 6
    Until: 24:00,             !- Field 7
    0.05,                     !- Field 8
    For: Weekdays,            !- Field 9
    Until: 06:00,             !- Field 10
    0.0,                      !- Field 11
    Until: 07:00,             !- Field 12
    0.1,                      !- Field 13
    Until: 08:00,             !- Field 14
    0.2,                      !- Field 15
    Until: 12:00,             !- Field 16
    0.95,                     !- Field 17
    Until: 13:00,             !- Field 18
    0.5,                      !- Field 19
    Until: 17:00,             !- Field 20
    0.95,                     !- Field 21
    Until: 18:00,             !- Field 22
    0.3,                      !- Field 23
    Until: 20:00,             !- Field 24
    0.1,                      !- Field 25
    Until: 24:00,             !- Field 26
    0.05,                     !- Field 27
    For: Saturday,            !- Field 28
    Until: 06:00,             !- Field 29
    0.0,                      !- Field 30
    Until: 08:00,             !- Field 31
    0.1,                      !- Field 32
    Until: 12:00,             !- Field 33
    0.3,                      !- Field 34
    Until: 17:00,             !- Field 35
    0.1,                      !- Field 36
    Until: 24:00,             !- Field 37
    0.0,                      !- Field 38
    For: AllOtherDays,        !- Field 39
    Until: 24:00,             !- Field 40
    0.0;                      !- Field 41

Schedule:Compact,
    BLDG_LIGHT_SCH,           !- Name
    Fraction,                 !- Schedule Type Limits Name
    Through: 12/31,           !- Field 1
    For: Weekdays,            !- Field 2
    Until: 05:00,             !- Field 3
    0.05,                     !- Field 4
    Until: 07:00,             !- Field 5
    0.1,                      !- Field 6
    Until: 08:00,             !- Field 7
    0.3,                      !- Field 8
    Until: 17:00,             !- Field 9
    0.9,                      !- Field 10
    Until: 18:00,             !- Field 11
    0.5,                      !- Field 12
    Until: 20:00,             !- Field 13
    0.3,                      !- Field 14
    Until: 22:00,             !- Field 15
    0.2,                      !- Field 16
    Until: 23:00,             !- Field 17
    0.1,                      !- Field 18
    Until: 24:00,             !- Field 19
    0.05,                     !- Field 20
    For: Saturday,            !- Field 21
    Until: 06:00,             !- Field 22
    0.05,                     !- Field 23
    Until: 08:00,             !- Field 24
    0.1,                      !- Field 25
    Until: 12:00,             !- Field 26
    0.3,                      !- Field 27
    Until: 17:00,             !- Field 28
    0.15,                     !- Field 29
    Until: 24:00,             !- Field 30
    0.05,                     !- Field 31
    For: SummerDesignDay,     !- Field 32
    Until: 24:00,             !- Field 33
    1.0,                      !- Field 34
    For: WinterDesignDay,     !- Field 35
    Until: 24:00,             !- Field 36
    0.0,                      !- Field 37
    For: AllOtherDays,        !- Field 38
    Until: 24:00,             !- Field 39
    0.05;                     !- Field 40

Schedule:Compact,
    BLDG_EQUIP_SCH,           !- Name
    Fraction,                 !- Schedule Type Limits Name
    Through: 12/31,           !- Field 1
    For: Weekdays,            !- Field 2
    Until: 08:00,             !- Field 3
    0.40,                     !- Field 4
    Until: 12:00,             !- Field 5
    0.90,                     !- Field 6
    Until: 13:00,             !- Field 7
    0.80,                     !- Field 8
    Until: 17:00,             !- Field 9
    0.90,                     !- Field 10
    Until: 18:00,             !- Field 11
    0.50,                     !- Field 12
    Until: 24:00,             !- Field 13
    0.40,                     !- Field 14
    For: Saturday,            !- Field 15
    Until: 06:00,             !- Field 16
    0.30,                     !- Field 17
    Until: 08:00,             !- Field 18
    0.4,                      !- Field 19
    Until: 12:00,             !- Field 20
    0.5,                      !- Field 21
    Until: 17:00,             !- Field 22
    0.35,                     !- Field 23
    Until: 24:00,             !- Field 24
    0.30,                     !- Field 25
    For: SummerDesignDay,     !- Field 26
    Until: 24:00,             !- Field 27
    1.0,                      !- Field 28
    For: WinterDesignDay,     !- Field 29
    Until: 24:00,             !- Field 30
    0.0,                      !- Field 31
    For: AllOtherDays,        !- Field 32
    Until: 24:00,             !- Field 33
    0.30;                     !- Field 34

Schedule:Compact,
    ACTIVITY_SCH,             !- Name
    Any Number,               !- Schedule Type Limits Name
    Through: 12/31,           !- Field 1
    For: AllDays,             !- Field 2
    Until: 24:00,             !- Field 3
    120;                      !- Field 4

Schedule:Compact,
    WORK_EFF_SCH,             !- Name
    Fraction,                 !- Schedule Type Limits Name
    Through: 12/31,           !- Field 1
    For: AllDays,             !- Field 2
    Until: 24:00,             !- Field 3
    0.0;                      !- Field 4

Schedule:Compact,
    AIR_VELO_SCH,             !- Name
    Any Number,               !- Schedule Type Limits Name
    Through: 12/31,           !- Field 1
    For: AllDays,             !- Field 2
    Until: 24:00,             !- Field 3
    0.2;                      !- Field 4

Schedule:Compact,
    CLOTHING_SCH,             !- Name
    Any Number,               !- Schedule Type Limits Name
    Through: 04/30,           !- Field 1
    For: AllDays,             !- Field 2
    Until: 24:00,             !- Field 3
    1.0,                      !- Field 4
    Through: 09/30,           !- Field 5
    For: AllDays,             !- Field 6
    Until: 24:00,             !- Field 7
    0.5,                      !- Field 8
    Through: 12/31,           !- Field 9
    For: AllDays,             !- Field 10
    Until: 24:00,             !- Field 11
    1.0;                      !- Field 12

Schedule:Compact,
    CLGSETP_SCH,              !- Name
    Temperature,              !- Schedule Type Limits Name
    Through: 12/31,           !- Field 1
    For: Weekdays SummerDesignDay,    !- Field 2
    Until: 06:00,             !- Field 3
    26.7,                     !- Field 4
    Until: 22:00,             !- Field 5
    24.0,                     !- Field 6
    Until: 24:00,             !- Field 7
    26.7,                     !- Field 8
    For: Saturday,            !- Field 9
    Until: 06:00,             !- Field 10
    26.7,                     !- Field 11
    Until: 18:00,             !- Field 12
    24.0,                     !- Field 13
    Until: 24:00,             !- Field 14
    26.7,                     !- Field 15
    For: AllOtherDays,        !- Field 16
    Until: 24:00,             !- Field 17
    26.7;                     !- Field 18

Schedule:Compact,
    HTGSETP_SCH,              !- Name
    Temperature,              !- Schedule Type Limits Name
    Through: 12/31,           !- Field 1
    For: Weekdays,            !- Field 2
    Until: 06:00,             !- Field 3
    15.6,                     !- Field 4
    Until: 22:00,             !- Field 5
    21.0,                     !- Field 6
    Until: 24:00,             !- Field 7
    15.6,                     !- Field 8
    For: Saturday,            !- Field 9
    Until: 06:00,             !- Field 10
    15.6,                     !- Field 11
    Until: 18:00,             !- Field 12
    21.0,                     !- Field 13
    Until: 24:00,             !- Field 14
    15.6,                     !- Field 15
    For: WinterDesignDay,     !- Field 16
    Until: 24:00,             !- Field 17
    21.0,                     !- Field 18
    For: AllOtherDays,        !- Field 19
    Until: 24:00,             !- Field 20
    15.6;                     !- Field 21

Schedule:Compact,
    MinOA_Sched,              !- Name
    Fraction,                 !- Schedule Type Limits Name
    Through: 12/31,           !- Field 1
    For: Weekdays SummerDesignDay,    !- Field 2
    Until: 07:00,             !- Field 3
    0.0,                      !- Field 4
    Until: 22:00,             !- Field 5
    1.0,                      !- Field 6
    Until: 24:00,             !- Field 7
    0.0,                      !- Field 8
    For: Saturday WinterDesignDay,    !- Field 9
    Until: 07:00,             !- Field 10
    0.0,                      !- Field 11
    Until: 18:00,             !- Field 12
    1.0,                      !- Field 13
    Until: 24:00,             !- Field 14
    0.0,                      !- Field 15
    For: AllOtherDays,        !- Field 16
    Until: 24:00,             !- Field 17
    0.0;                      !- Field 18

Schedule:Compact,
    Dual Zone Control Type Sched,    !- Name
    Control Type,             !- Schedule Type Limits Name
    Through: 12/31,           !- Field 1
    For: AllDays,             !- Field 2
    Until: 24:00,             !- Field 3
    4;                        !- Field 4

Schedule:Compact,
    HVACOperationSchd,        !- Name
    On/Off,                   !- Schedule Type Limits Name
    Through: 12/31,           !- Field 1
    For: Weekdays SummerDesignDay,    !- Field 2
    Until: 06:00,             !- Field 3
    0.0,                      !- Field 4
    Until: 22:00,             !- Field 5
    1.0,                      !- Field 6
    Until: 24:00,             !- Field 7
    0.0,                      !- Field 8
    For: Saturday WinterDesignDay,    !- Field 9
    Until: 06:00,             !- Field 10
    0.0,                      !- Field 11
    Until: 18:00,             !- Field 12
    0.5,                      !- Field 13
    Until: 24:00,             !- Field 14
    0.0,                      !- Field 15
    For: AllOtherDays,        !- Field 16
    Until: 24:00,             !- Field 17
    0.0;                      !- Field 18

Schedule:Compact,
    BLDG_SWH_SCH,             !- Name
    Fraction,                 !- Schedule Type Limits Name
    Through: 12/31,           !- Field 1
    For: Weekdays SummerDesignDay,    !- Field 2
    Until: 05:00,             !- Field 3
    0.05,                     !- Field 4
    Until: 06:00,             !- Field 5
    0.08,                     !- Field 6
    Until: 07:00,             !- Field 7
    0.07,                     !- Field 8
    Until: 08:00,             !- Field 9
    0.19,                     !- Field 10
    Until: 09:00,             !- Field 11
    0.35,                     !- Field 12
    Until: 10:00,             !- Field 13
    0.38,                     !- Field 14
    Until: 11:00,             !- Field 15
    0.39,                     !- Field 16
    Until: 12:00,             !- Field 17
    0.47,                     !- Field 18
    Until: 13:00,             !- Field 19
    0.57,                     !- Field 20
    Until: 14:00,             !- Field 21
    0.54,                     !- Field 22
    Until: 15:00,             !- Field 23
    0.34,                     !- Field 24
    Until: 16:00,             !- Field 25
    0.33,                     !- Field 26
    Until: 17:00,             !- Field 27
    0.44,                     !- Field 28
    Until: 18:00,             !- Field 29
    0.26,                     !- Field 30
    Until: 19:00,             !- Field 31
    0.21,                     !- Field 32
    Until: 20:00,             !- Field 33
    0.15,                     !- Field 34
    Until: 21:00,             !- Field 35
    0.17,                     !- Field 36
    Until: 22:00,             !- Field 37
    0.08,                     !- Field 38
    Until: 24:00,             !- Field 39
    0.05,                     !- Field 40
    For: Saturday WinterDesignDay,    !- Field 41
    Until: 05:00,             !- Field 42
    0.05,                     !- Field 43
    Until: 06:00,             !- Field 44
    0.08,                     !- Field 45
    Until: 07:00,             !- Field 46
    0.07,                     !- Field 47
    Until: 08:00,             !- Field 48