
OS:Version,
  {a02babb7-51dd-4dc1-af31-74c732326815}, !- Handle
  3.8.0;                                  !- Version Identifier

OS:RunPeriod,
  {f30977eb-5085-43d4-a8b1-3c5ac98745fd}, !- Handle
  Run Period 1,                           !- Name
  1,                                      !- Begin Month
  1,                                      !- Begin Day of Month
  12,                                     !- End Month
  31,                                     !- End Day of Month
  ,                                       !- Use Weather File Holidays and Special Days
  ,                                       !- Use Weather File Daylight Saving Period
  ,                                       !- Apply Weekend Holiday Rule
  ,                                       !- Use Weather File Rain Indicators
  ,                                       !- Use Weather File Snow Indicators
  ;                                       !- Number of Times Runperiod to be Repeated

OS:Timestep,
  {bbd0af49-ea58-4077-b0dc-2058c5a67d4c}, !- Handle
  6;                                      !- Number of Timesteps per Hour

OS:Building,
  {876a5e40-ad9c-4b43-878d-b5242dd60865}, !- Handle
  Building 1,                             !- Name
  ,                                       !- Building Sector Type
  0,                                      !- North Axis {deg}
  ,                                       !- Nominal Floor to Floor Height {m}
  ,                                       !- Space Type Name
  ,                                       !- Default Construction Set Name
  ;                                       !- Default Schedule Set Name

OS:Site,
  {744331f3-e197-438d-b55e-eafdcf6c6025}, !- Handle
  Shanghai,                               !- Name
  31.4,                                   !- Latitude {deg}
  121.45,                                 !- Longitude {deg}
  8,                                      !- Time Zone {hr}
  5.5,                                    !- Elevation {m}
  City;                                   !- Terrain

OS:SimulationControl,
  {f95985ef-0a45-4cf7-b640-506d02872b38}, !- Handle
  Yes,                                    !- Do Zone Sizing Calculation
  Yes,                                    !- Do System Sizing Calculation
  Yes,                                    !- Do Plant Sizing Calculation
  No,                                     !- Run Simulation for Sizing Periods
  Yes,                                    !- Run Simulation for Weather File Run Periods
  ,                                       !- Loads Convergence Tolerance Value {W}
  ,                                       !- Temperature Convergence Tolerance Value {deltaC}
  FullInteriorAndExteriorWithReflections; !- Solar Distribution

OS:ShadowCalculation,
  {0833c9c3-3d5b-4128-b34e-e130d7b8907d}, !- Handle
  PolygonClipping,                        !- Shading Calculation Method
  ,                                       !- Shading Calculation Update Frequency Method
  30,                                     !- Shading Calculation Update Frequency
  3000,                                   !- Maximum Figures in Shadow Overlap Calculations
  ,                                       !- Polygon Clipping Algorithm
  512,                                    !- Pixel Counting Resolution
  ,                                       !- Sky Diffuse Modeling Algorithm
  No,                                     !- Output External Shading Calculation Results
  No,                                     !- Disable Self-Shading Within Shading Zone Groups
  No;                                     !- Disable Self-Shading From Shading Zone Groups to Other Zones

OS:Sizing:Parameters,
  {257e54eb-d7a8-45b9-89df-b207d4efee5d}, !- Handle
  1.25,                                   !- Heating Sizing Factor
  1.15;                                   !- Cooling Sizing Factor

OS:SizingPeriod:DesignDay,
  {b67710ac-a1a7-446e-acec-0ce24d57b60f}, !- Handle
  New York Laguardia Arpt Ann Htg 99.6% Condns DB, !- Name
  -10.8,                                  !- Maximum Dry-Bulb Temperature {C}
  0,                                      !- Daily Dry-Bulb Temperature Range {deltaC}
  101289,                                 !- Barometric Pressure {Pa}
  7.5,                                    !- Wind Speed {m/s}
  320,                                    !- Wind Direction {deg}
  0,                                      !- Sky Clearness
  No,                                     !- Rain Indicator
  No,                                     !- Snow Indicator
  21,                                     !- Day of Month
  1,                                      !- Month
  WinterDesignDay,                        !- Day Type
  No,                                     !- Daylight Saving Time Indicator
  Wetbulb,                                !- Humidity Condition Type
  ,                                       !- Humidity Condition Day Schedule Name
  -10.8,                                  !- Wetbulb or DewPoint at Maximum Dry-Bulb {C}
  ,                                       !- Humidity Ratio at Maximum Dry-Bulb {kgWater/kgDryAir}
  ,                                       !- Enthalpy at Maximum Dry-Bulb {J/kg}
  DefaultMultipliers,                     !- Dry-Bulb Temperature Range Modifier Type
  ,                                       !- Dry-Bulb Temperature Range Modifier Day Schedule Name
  ASHRAEClearSky;                         !- Solar Model Indicator

OS:SizingPeriod:DesignDay,
  {425d9dde-5ce0-4a04-9689-fba3eb9f7785}, !- Handle
  New York Laguardia Arpt Ann Clg .4% Condns DB=>MWB, !- Name
  33.5,                                   !- Maximum Dry-Bulb Temperature {C}
  7.7,                                    !- Daily Dry-Bulb Temperature Range {deltaC}
  101289,                                 !- Barometric Pressure {Pa}
  5.6,                                    !- Wind Speed {m/s}
  270,                                    !- Wind Direction {deg}
  0,                                      !- Sky Clearness
  No,                                     !- Rain Indicator
  No,                                     !- Snow Indicator
  21,                                     !- Day of Month
  7,                                      !- Month
  SummerDesignDay,                        !- Day Type
  No,                                     !- Daylight Saving Time Indicator
  Wetbulb,                                !- Humidity Condition Type
  ,                                       !- Humidity Condition Day Schedule Name
  23.5,                                   !- Wetbulb or DewPoint at Maximum Dry-Bulb {C}
  ,                                       !- Humidity Ratio at Maximum Dry-Bulb {kgWater/kgDryAir}
  ,                                       !- Enthalpy at Maximum Dry-Bulb {J/kg}
  DefaultMultipliers,                     !- Dry-Bulb Temperature Range Modifier Type
  ,                                       !- Dry-Bulb Temperature Range Modifier Day Schedule Name
  ASHRAETau,                              !- Solar Model Indicator
  ,                                       !- Beam Solar Day Schedule Name
  ,                                       !- Diffuse Solar Day Schedule Name
  0.532,                                  !- ASHRAE Clear Sky Optical Depth for Beam Irradiance {dimensionless}
  1.821;                                  !- ASHRAE Clear Sky Optical Depth for Diffuse Irradiance {dimensionless}

OS:SizingPeriod:DesignDay,
  {4b62cfd3-a9fd-45d9-9fd2-04866a5f50c1}, !- Handle
  New York Laguardia Arpt Ann Hum_n 99.6% Condns DP=>MCDB, !- Name
  -9.3,                                   !- Maximum Dry-Bulb Temperature {C}
  0,                                      !- Daily Dry-Bulb Temperature Range {deltaC}
  101289,                                 !- Barometric Pressure {Pa}
  7.5,                                    !- Wind Speed {m/s}
  320,                                    !- Wind Direction {deg}
  0,                                      !- Sky Clearness
  No,                                     !- Rain Indicator
  No,                                     !- Snow Indicator
  21,                                     !- Day of Month
  1,                                      !- Month
  WinterDesignDay,                        !- Day Type
  No,                                     !- Daylight Saving Time Indicator
  Dewpoint,                               !- Humidity Condition Type
  ,                                       !- Humidity Condition Day Schedule Name
  -20.1,                                  !- Wetbulb or DewPoint at Maximum Dry-Bulb {C}
  ,                                       !- Humidity Ratio at Maximum Dry-Bulb {kgWater/kgDryAir}
  ,                                       !- Enthalpy at Maximum Dry-Bulb {J/kg}
  DefaultMultipliers,                     !- Dry-Bulb Temperature Range Modifier Type
  ,                                       !- Dry-Bulb Temperature Range Modifier Day Schedule Name
  ASHRAEClearSky;                         !- Solar Model Indicator

OS:SizingPeriod:DesignDay,
  {ff2ee575-bb85-4e23-82a1-48fbc036b6d1}, !- Handle
  New York Laguardia Arpt Ann Htg Wind 99.6% Condns WS=>MCDB, !- Name
  0,                                      !- Maximum Dry-Bulb Temperature {C}
  0,                                      !- Daily Dry-Bulb Temperature Range {deltaC}
  101289,                                 !- Barometric Pressure {Pa}
  14.4,                                   !- Wind Speed {m/s}
  320,                                    !- Wind Direction {deg}
  0,                                      !- Sky Clearness
  No,                                     !- Rain Indicator
  No,                                     !- Snow Indicator
  21,                                     !- Day of Month
  1,                                      !- Month
  WinterDesignDay,                        !- Day Type
  No,                                     !- Daylight Saving Time Indicator
  Wetbulb,                                !- Humidity Condition Type
  ,                                       !- Humidity Condition Day Schedule Name
  0,                                      !- Wetbulb or DewPoint at Maximum Dry-Bulb {C}
  ,                                       !- Humidity Ratio at Maximum Dry-Bulb {kgWater/kgDryAir}
  ,                                       !- Enthalpy at Maximum Dry-Bulb {J/kg}
  DefaultMultipliers,                     !- Dry-Bulb Temperature Range Modifier Type
  ,                                       !- Dry-Bulb Temperature Range Modifier Day Schedule Name
  ASHRAEClearSky;                         !- Solar Model Indicator

OS:SizingPeriod:DesignDay,
  {6f2afbe2-a510-4949-a068-d97c157661be}, !- Handle
  New York Laguardia Arpt Ann Clg .4% Condns WB=>MDB, !- Name
  30.7,                                   !- Maximum Dry-Bulb Temperature {C}
  7.7,                                    !- Daily Dry-Bulb Temperature Range {deltaC}
  101289,                                 !- Barometric Pressure {Pa}
  5.6,                                    !- Wind Speed {m/s}
  270,                                    !- Wind Direction {deg}
  0,                                      !- Sky Clearness
  No,                                     !- Rain Indicator
  No,                                     !- Snow Indicator
  21,                                     !- Day of Month
  7,                                      !- Month
  SummerDesignDay,                        !- Day Type
  No,                                     !- Daylight Saving Time Indicator
  Wetbulb,                                !- Humidity Condition Type
  ,                                       !- Humidity Condition Day Schedule Name
  25.1,                                   !- Wetbulb or DewPoint at Maximum Dry-Bulb {C}
  ,                                       !- Humidity Ratio at Maximum Dry-Bulb {kgWater/kgDryAir}
  ,                                       !- Enthalpy at Maximum Dry-Bulb {J/kg}
  DefaultMultipliers,                     !- Dry-Bulb Temperature Range Modifier Type
  ,                                       !- Dry-Bulb Temperature Range Modifier Day Schedule Name
  ASHRAETau,                              !- Solar Model Indicator
  ,                                       !- Beam Solar Day Schedule Name
  ,                                       !- Diffuse Solar Day Schedule Name
  0.532,                                  !- ASHRAE Clear Sky Optical Depth for Beam Irradiance {dimensionless}
  1.821;                                  !- ASHRAE Clear Sky Optical Depth for Diffuse Irradiance {dimensionless}

OS:SizingPeriod:DesignDay,
  {d4464a0b-b63f-4800-acd7-3785d47e4358}, !- Handle
  New York Laguardia Arpt Ann Clg .4% Condns DP=>MDB, !- Name
  27.2,                                   !- Maximum Dry-Bulb Temperature {C}
  7.7,                                    !- Daily Dry-Bulb Temperature Range {deltaC}
  101289,                                 !- Barometric Pressure {Pa}
  5.6,                                    !- Wind Speed {m/s}
  270,                                    !- Wind Direction {deg}
  0,                                      !- Sky Clearness
  No,                                     !- Rain Indicator
  No,                                     !- Snow Indicator
  21,                                     !- Day of Month
  7,                                      !- Month
  SummerDesignDay,                        !- Day Type
  No,                                     !- Daylight Saving Time Indicator
  Dewpoint,                               !- Humidity Condition Type
  ,                                       !- Humidity Condition Day Schedule Name
  23.5,                                   !- Wetbulb or DewPoint at Maximum Dry-Bulb {C}
  ,                                       !- Humidity Ratio at Maximum Dry-Bulb {kgWater/kgDryAir}
  ,                                       !- Enthalpy at Maximum Dry-Bulb {J/kg}
  DefaultMultipliers,                     !- Dry-Bulb Temperature Range Modifier Type
  ,                                       !- Dry-Bulb Temperature Range Modifier Day Schedule Name
  ASHRAETau,                              !- Solar Model Indicator
  ,                                       !- Beam Solar Day Schedule Name
  ,                                       !- Diffuse Solar Day Schedule Name
  0.532,                                  !- ASHRAE Clear Sky Optical Depth for Beam Irradiance {dimensionless}
  1.821;                                  !- ASHRAE Clear Sky Optical Depth for Diffuse Irradiance {dimensionless}

OS:SizingPeriod:DesignDay,
  {67df7081-52c9-4c4f-bc8d-b0d44bbac1bf}, !- Handle
  New York Laguardia Arpt Ann Clg .4% Condns Enth=>MDB, !- Name
  30.8,                                   !- Maximum Dry-Bulb Temperature {C}
  7.7,                                    !- Daily Dry-Bulb Temperature Range {deltaC}
  101289,                                 !- Barometric Pressure {Pa}
  5.6,                                    !- Wind Speed {m/s}
  270,                                    !- Wind Direction {deg}
  0,                                      !- Sky Clearness
  No,                                     !- Rain Indicator
  No,                                     !- Snow Indicator
  21,                                     !- Day of Month
  7,                                      !- Month
  SummerDesignDay,                        !- Day Type
  No,                                     !- Daylight Saving Time Indicator
  Enthalpy,                               !- Humidity Condition Type
  ,                                       !- Humidity Condition Day Schedule Name
  ,                                       !- Wetbulb or DewPoint at Maximum Dry-Bulb {C}
  ,                                       !- Humidity Ratio at Maximum Dry-Bulb {kgWater/kgDryAir}
  76200,                                  !- Enthalpy at Maximum Dry-Bulb {J/kg}
  DefaultMultipliers,                     !- Dry-Bulb Temperature Range Modifier Type
  ,                                       !- Dry-Bulb Temperature Range Modifier Day Schedule Name
  ASHRAETau,                              !- Solar Model Indicator
  ,                                       !- Beam Solar Day Schedule Name
  ,                                       !- Diffuse Solar Day Schedule Name
  0.532,                                  !- ASHRAE Clear Sky Optical Depth for Beam Irradiance {dimensionless}
  1.821;                                  !- ASHRAE Clear Sky Optical Depth for Diffuse Irradiance {dimensionless}

OS:BuildingStory,
  {da71d1c1-a4c8-4c42-8f17-1e480a6fc1df}, !- Handle
  Building Story 1,                       !- Name
  0,                                      !- Nominal Z Coordinate {m}
  ,                                       !- Nominal Floor to Floor Height {m}
  ,                                       !- Default Construction Set Name
  ,                                       !- Default Schedule Set Name
  {42d3fe26-653b-44c9-8662-63af166f7767}; !- Group Rendering Name

OS:WindowMaterial:Glazing,
  {78422589-5b61-41e1-89c6-cb517c5423e8}, !- Handle
  Clear 3mm,                              !- Name
  SpectralAverage,                        !- Optical Data Type
  ,                                       !- Window Glass Spectral Data Set Name
  0.00299999999999999,                    !- Thickness {m}
  0.837,                                  !- Solar Transmittance at Normal Incidence
  0.075,                                  !- Front Side Solar Reflectance at Normal Incidence
  0,                                      !- Back Side Solar Reflectance at Normal Incidence
  0.898,                                  !- Visible Transmittance at Normal Incidence
  0.081,                                  !- Front Side Visible Reflectance at Normal Incidence
  0,                                      !- Back Side Visible Reflectance at Normal Incidence
  0,                                      !- Infrared Transmittance at Normal Incidence
  0.84,                                   !- Front Side Infrared Hemispherical Emissivity
  0.84,                                   !- Back Side Infrared Hemispherical Emissivity
  0.9,                                    !- Conductivity {W/m-K}
  1;                                      !- Dirt Correction Factor for Solar and Visible Transmittance

OS:WindowMaterial:Gas,
  {019109b3-8ffa-4852-80c1-33ca1485ec56}, !- Handle
  Air 13mm,                               !- Name
  Air,                                    !- Gas Type
  0.0127;                                 !- Thickness {m}

OS:Construction,
  {24c526e3-d9d2-4b9b-bd5a-01ac7b8328e6}, !- Handle
  Exterior Window,                        !- Name
  {3801a39a-c648-4750-8e8c-c128fe8a0111}, !- Surface Rendering Name
  {78422589-5b61-41e1-89c6-cb517c5423e8}, !- Layer 1
  {019109b3-8ffa-4852-80c1-33ca1485ec56}, !- Layer 2
  {78422589-5b61-41e1-89c6-cb517c5423e8}; !- Layer 3

OS:Material,
  {ccb593cb-d7dd-437a-bd4c-e2605494c522}, !- Handle
  F16 Acoustic tile,                      !- Name
  MediumSmooth,                           !- Roughness
  0.0191,                                 !- Thickness {m}
  0.06,                                   !- Conductivity {W/m-K}
  368,                                    !- Density {kg/m3}
  590.000000000002,                       !- Specific Heat {J/kg-K}
  0.9,                                    !- Thermal Absorptance
  0.3,                                    !- Solar Absorptance
  0.3;                                    !- Visible Absorptance

OS:Material:AirGap,
  {329e05f4-1ce6-4701-a657-08727bdea2c4}, !- Handle
  Material Air Gap 1,                     !- Name
  0.18;                                   !- Thermal Resistance {m2-K/W}

OS:Material,
  {4a960733-e319-4d57-aa57-62fddba207d0}, !- Handle
  M11 100mm lightweight concrete,         !- Name
  MediumRough,                            !- Roughness
  0.1016,                                 !- Thickness {m}
  0.53,                                   !- Conductivity {W/m-K}
  1280,                                   !- Density {kg/m3}
  840.000000000002,                       !- Specific Heat {J/kg-K}
  0.9,                                    !- Thermal Absorptance
  0.5,                                    !- Solar Absorptance
  0.5;                                    !- Visible Absorptance

OS:Construction,
  {887e1fff-b5f3-4093-a1a4-51f16e20d10b}, !- Handle
  Interior Floor,                         !- Name
  {8623090e-da89-49e9-837b-c5196b86ff9f}, !- Surface Rendering Name
  {ccb593cb-d7dd-437a-bd4c-e2605494c522}, !- Layer 1
  {329e05f4-1ce6-4701-a657-08727bdea2c4}, !- Layer 2
  {4a960733-e319-4d57-aa57-62fddba207d0}; !- Layer 3

OS:Material,
  {1c9ff8f2-3ade-47ac-87a8-6e19adf49129}, !- Handle
  M01 100mm brick,                        !- Name
  MediumRough,                            !- Roughness
  0.1016,                                 !- Thickness {m}
  0.89,                                   !- Conductivity {W/m-K}
  1920,                                   !- Density {kg/m3}
  790,                                    !- Specific Heat {J/kg-K}
  0.9,                                    !- Thermal Absorptance
  0.7,                                    !- Solar Absorptance
  0.7;                                    !- Visible Absorptance

OS:Material,
  {14c8faa5-f32c-406a-87b0-32357c1b48f2}, !- Handle
  M15 200mm heavyweight concrete,         !- Name
  MediumRough,                            !- Roughness
  0.2032,                                 !- Thickness {m}
  1.95,                                   !- Conductivity {W/m-K}
  2240,                                   !- Density {kg/m3}
  900,                                    !- Specific Heat {J/kg-K}
  0.9,                                    !- Thermal Absorptance
  0.7,                                    !- Solar Absorptance
  0.7;                                    !- Visible Absorptance

OS:Material,
  {e117228e-0a73-4ff1-ae20-1da6383ce220}, !- Handle
  I02 50mm insulation board,              !- Name
  MediumRough,                            !- Roughness
  0.0508,                                 !- Thickness {m}
  0.03,                                   !- Conductivity {W/m-K}
  43,                                     !- Density {kg/m3}
  1210,                                   !- Specific Heat {J/kg-K}
  0.9,                                    !- Thermal Absorptance
  0.7,                                    !- Solar Absorptance
  0.7;                                    !- Visible Absorptance

OS:Material:AirGap,
  {b2620a5b-36b4-4a39-ae3f-ffafd77521fa}, !- Handle
  Material Air Gap 2,                     !- Name
  0.15;                                   !- Thermal Resistance {m2-K/W}

OS:Material,
  {ba8f4326-29c4-409e-b73b-9126128c4c19}, !- Handle
  G01a 19mm gypsum board,                 !- Name
  MediumSmooth,                           !- Roughness
  0.019,                                  !- Thickness {m}
  0.16,                                   !- Conductivity {W/m-K}
  800,                                    !- Density {kg/m3}
  1090,                                   !- Specific Heat {J/kg-K}
  0.9,                                    !- Thermal Absorptance
  0.4,                                    !- Solar Absorptance
  0.4;                                    !- Visible Absorptance

OS:Construction,
  {2c58e277-e3d8-49f6-b2a5-1f5f3c2b1991}, !- Handle
  Exterior Wall,                          !- Name
  {b34d7734-5f07-4d11-b78d-4fdd65ad06c3}, !- Surface Rendering Name
  {1c9ff8f2-3ade-47ac-87a8-6e19adf49129}, !- Layer 1
  {14c8faa5-f32c-406a-87b0-32357c1b48f2}, !- Layer 2
  {e117228e-0a73-4ff1-ae20-1da6383ce220}, !- Layer 3
  {b2620a5b-36b4-4a39-ae3f-ffafd77521fa}, !- Layer 4
  {ba8f4326-29c4-409e-b73b-9126128c4c19}; !- Layer 5

OS:Construction,
  {055587ff-891c-4a84-bf1b-c339ed7eed10}, !- Handle
  Exterior Roof,                          !- Name
  {1cf51396-3e57-4d03-a933-8aa531cecd46}, !- Surface Rendering Name
  {4a960733-e319-4d57-aa57-62fddba207d0}, !- Layer 1
  {329e05f4-1ce6-4701-a657-08727bdea2c4}, !- Layer 2
  {ccb593cb-d7dd-437a-bd4c-e2605494c522}; !- Layer 3

OS:DefaultConstructionSet,
  {7a1f8624-125c-4ce5-a789-f3868939a37a}, !- Handle
  Default Construction Set 1,             !- Name
  {2c3ad995-81fc-44e6-aaf6-bac22f750ab1}, !- Default Exterior Surface Constructions Name
  {64e1e23c-4b97-44a2-9362-9a789c1dd4b6}, !- Default Interior Surface Constructions Name
  {09b19a17-3300-49e5-b1ef-1a7b0c0ba045}, !- Default Ground Contact Surface Constructions Name
  {864bbfec-0c34-448f-ab61-77174d86c69c}, !- Default Exterior SubSurface Constructions Name
  {8279e9df-cbe3-4897-8c2c-9081590fdffc}, !- Default Interior SubSurface Constructions Name
  ,                                       !- Interior Partition Construction Name
  ,                                       !- Space Shading Construction Name
  ,                                       !- Building Shading Construction Name
  ,                                       !- Site Shading Construction Name
  ;                                       !- Adiabatic Surface Construction Name

OS:DefaultSurfaceConstructions,
  {2c3ad995-81fc-44e6-aaf6-bac22f750ab1}, !- Handle
  Default Surface Constructions 1,        !- Name
  ,                                       !- Floor Construction Name
  {2c58e277-e3d8-49f6-b2a5-1f5f3c2b1991}, !- Wall Construction Name
  {055587ff-891c-4a84-bf1b-c339ed7eed10}; !- Roof Ceiling Construction Name

OS:DefaultSurfaceConstructions,
  {64e1e23c-4b97-44a2-9362-9a789c1dd4b6}, !- Handle
  Default Surface Constructions 2,        !- Name
  ,                                       !- Floor Construction Name
  ,                                       !- Wall Construction Name
  ;                                       !- Roof Ceiling Construction Name

OS:DefaultSurfaceConstructions,
  {09b19a17-3300-49e5-b1ef-1a7b0c0ba045}, !- Handle
  Default Surface Constructions 3,        !- Name
  {887e1fff-b5f3-4093-a1a4-51f16e20d10b}, !- Floor Construction Name
  ,                                       !- Wall Construction Name
  ;                                       !- Roof Ceiling Construction Name

OS:DefaultSubSurfaceConstructions,
  {864bbfec-0c34-448f-ab61-77174d86c69c}, !- Handle
  Default Sub Surface Constructions 1,    !- Name
  {24c526e3-d9d2-4b9b-bd5a-01ac7b8328e6}, !- Fixed Window Construction Name
  ,                                       !- Operable Window Construction Name
  ,                                       !- Door Construction Name
  ,                                       !- Glass Door Construction Name
  ,                                       !- Overhead Door Construction Name
  ,                                       !- Skylight Construction Name
  ,                                       !- Tubular Daylight Dome Construction Name
  ;                                       !- Tubular Daylight Diffuser Construction Name

OS:DefaultSubSurfaceConstructions,
  {8279e9df-cbe3-4897-8c2c-9081590fdffc}, !- Handle
  Default Sub Surface Constructions 2,    !- Name
  ,                                       !- Fixed Window Construction Name
  ,                                       !- Operable Window Construction Name
  ,                                       !- Door Construction Name
  ,                                       !- Glass Door Construction Name
  ,                                       !- Overhead Door Construction Name
  ,                                       !- Skylight Construction Name
  ,                                       !- Tubular Daylight Dome Construction Name
  ;                                       !- Tubular Daylight Diffuser Construction Name

OS:Space,
  {0ddc7e55-2b69-4176-96d9-5c9e9d42310f}, !- Handle
  Test_Office_0_space,                    !- Name
  {f63a69bf-1956-4a5f-bc36-82ee6df9487b}, !- Space Type Name
  {7a1f8624-125c-4ce5-a789-f3868939a37a}, !- Default Construction Set Name
  ,                                       !- Default Schedule Set Name
  ,                                       !- Direction of Relative North {deg}
  ,                                       !- X Origin {m}
  ,                                       !- Y Origin {m}
  ,                                       !- Z Origin {m}
  {da71d1c1-a4c8-4c42-8f17-1e480a6fc1df}, !- Building Story Name
  {42bfd6c2-2f1b-4b61-bb6e-d6cc34ef8402}; !- Thermal Zone Name

OS:SpaceType,
  {f63a69bf-1956-4a5f-bc36-82ee6df9487b}, !- Handle
  Office:OpenOffice:Test_Office_0,        !- Name
  ,                                       !- Default Construction Set Name
  {21a11dfc-fcc5-42b0-bba2-91723039898b}, !- Default Schedule Set Name
  {68e55700-3160-4402-bf2a-0228ed3c9fd1}, !- Group Rendering Name
  {8a822fb0-2d47-46cb-a086-c3524b227b24}; !- Design Specification Outdoor Air Object Name

OS:DefaultScheduleSet,
  {21a11dfc-fcc5-42b0-bba2-91723039898b}, !- Handle
  Test_Office_0_DefaultScheduleSet,       !- Name
  {02de807e-4c9e-483b-8d76-025d1f2ccb5a}, !- Hours of Operation Schedule Name
  ,                                       !- Number of People Schedule Name
  {3bf989ee-0b66-414b-9a21-eb297d7583a9}, !- People Activity Level Schedule Name
  {3999f579-cec3-4582-80b0-9b45eeefc69e}, !- Lighting Schedule Name
  {263de26f-f2cc-457a-a9af-a871349331a8}, !- Electric Equipment Schedule Name
  ,                                       !- Gas Equipment Schedule Name
  ,                                       !- Hot Water Equipment Schedule Name
  {002eb7b3-e9df-456e-8cba-efbeaa12e1d4}, !- Infiltration Schedule Name
  ,                                       !- Steam Equipment Schedule Name
  ;                                       !- Other Equipment Schedule Name

OS:ScheduleTypeLimits,
  {d5112960-ceec-4adc-ab57-acd69666c53b}, !- Handle
  Schedule Type Limits 1,                 !- Name
  0,                                      !- Lower Limit Value
  1,                                      !- Upper Limit Value