
OS:Version,
  {e62c9414-2dee-4f4c-b9ff-07d52037925a}, !- Handle
  3.8.0;                                  !- Version Identifier

OS:Site,
  {7a267696-942a-4fd3-bb73-70a4b33d02d3}, !- Handle
  Shanghai,                               !- Name
  31.4,                                   !- Latitude {deg}
  121.45,                                 !- Longitude {deg}
  8,                                      !- Time Zone {hr}
  5.5,                                    !- Elevation {m}
  City;                                   !- Terrain

OS:SimulationControl,
  {b2998e45-951c-467b-bd16-b15e0e507f08}, !- Handle
  Yes,                                    !- Do Zone Sizing Calculation
  Yes,                                    !- Do System Sizing Calculation
  Yes,                                    !- Do Plant Sizing Calculation
  No,                                     !- Run Simulation for Sizing Periods
  Yes,                                    !- Run Simulation for Weather File Run Periods
  ,                                       !- Loads Convergence Tolerance Value {W}
  ,                                       !- Temperature Convergence Tolerance Value {deltaC}
  FullInteriorAndExteriorWithReflections, !- Solar Distribution
  ,                                       !- Maximum Number of Warmup Days
  ,                                       !- Minimum Number of Warmup Days
  No;                                     !- Do HVAC Sizing Simulation for Sizing Periods

OS:Building,
  {688f188a-560a-4d38-9a61-4f0a02140338}, !- Handle
  Building 1,                             !- Name
  ,                                       !- Building Sector Type
  0,                                      !- North Axis {deg}
  ,                                       !- Nominal Floor to Floor Height {m}
  ,                                       !- Space Type Name
  ,                                       !- Default Construction Set Name
  ;                                       !- Default Schedule Set Name

OS:ShadowCalculation,
  {8dcb618c-d237-4d84-9899-bf9430969392}, !- Handle
  PolygonClipping,                        !- Shading Calculation Method
  Periodic,                               !- Shading Calculation Update Frequency Method
  30,                                     !- Shading Calculation Update Frequency
  3000,                                   !- Maximum Figures in Shadow Overlap Calculations
  SutherlandHodgman,                      !- Polygon Clipping Algorithm
  512,                                    !- Pixel Counting Resolution
  SimpleSkyDiffuseModeling,               !- Sky Diffuse Modeling Algorithm
  No,                                     !- Output External Shading Calculation Results
  No,                                     !- Disable Self-Shading Within Shading Zone Groups
  No;                                     !- Disable Self-Shading From Shading Zone Groups to Other Zones

OS:HeatBalanceAlgorithm,
  {4b152a59-029d-46bb-8d91-7e50aa30ad21}, !- Handle
  ConductionTransferFunction,             !- Algorithm
  200;                                    !- Surface Temperature Upper Limit {C}

OS:Timestep,
  {cc980e03-0ab9-4ea2-a007-a843ef36d91b}, !- Handle
  6;                                      !- Number of Timesteps per Hour

OS:SizingPeriod:DesignDay,
  {d31fe6f6-5811-4fa6-a871-91ad808c6bfa}, !- Handle
  New York Laguardia Arpt Ann Clg .4% Condns DB=>MWB, !- Name
  33.5,                                   !- Maximum Dry-Bulb Temperature {C}
  7.7,                                    !- Daily Dry-Bulb Temperature Range {deltaC}
  101289,                                 !- Barometric Pressure {Pa}
  5.6,                                    !- Wind Speed {m/s}
  270,                                    !- Wind Direction {deg}
  ,                                       !- Sky Clearness
  No,                                     !- Rain Indicator
  No,                                     !- Snow Indicator
  21,                                     !- Day of Month
  7,                                      !- Month
  SummerDesignDay,                        !- Day Type
  No,                                     !- Daylight Saving Time Indicator
  Wetbulb,                                !- Humidity Condition Type
  ,                                       !- Humidity Condition Day Schedule Name
  23.5,                                   !- Wetbulb or DewPoint at Maximum Dry-Bulb {C}
  ,                                       !- Humidity Ratio at Maximum Dry-Bulb {kgWater/kgDryAir}
  ,                                       !- Enthalpy at Maximum Dry-Bulb {J/kg}
  DefaultMultipliers,                     !- Dry-Bulb Temperature Range Modifier Type
  ,                                       !- Dry-Bulb Temperature Range Modifier Day Schedule Name
  ASHRAETau,                              !- Solar Model Indicator
  ,                                       !- Beam Solar Day Schedule Name
  ,                                       !- Diffuse Solar Day Schedule Name
  0.532,                                  !- ASHRAE Clear Sky Optical Depth for Beam Irradiance {dimensionless}
  1.821,                                  !- ASHRAE Clear Sky Optical Depth for Diffuse Irradiance {dimensionless}
  ,                                       !- Daily Wet-Bulb Temperature Range {deltaC}
  ,                                       !- Maximum Number Warmup Days
  FullResetAtBeginEnvironment;            !- Begin Environment Reset Mode

OS:SizingPeriod:DesignDay,
  {a0f53792-255b-4625-be9c-b4acb0843540}, !- Handle
  New York Laguardia Arpt Ann Clg .4% Condns DP=>MDB, !- Name
  27.2,                                   !- Maximum Dry-Bulb Temperature {C}
  7.7,                                    !- Daily Dry-Bulb Temperature Range {deltaC}
  101289,                                 !- Barometric Pressure {Pa}
  5.6,                                    !- Wind Speed {m/s}
  270,                                    !- Wind Direction {deg}
  ,                                       !- Sky Clearness
  No,                                     !- Rain Indicator
  No,                                     !- Snow Indicator
  21,                                     !- Day of Month
  7,                                      !- Month
  SummerDesignDay,                        !- Day Type
  No,                                     !- Daylight Saving Time Indicator
  Dewpoint,                               !- Humidity Condition Type
  ,                                       !- Humidity Condition Day Schedule Name
  23.5,                                   !- Wetbulb or DewPoint at Maximum Dry-Bulb {C}
  ,                                       !- Humidity Ratio at Maximum Dry-Bulb {kgWater/kgDryAir}
  ,                                       !- Enthalpy at Maximum Dry-Bulb {J/kg}
  DefaultMultipliers,                     !- Dry-Bulb Temperature Range Modifier Type
  ,                                       !- Dry-Bulb Temperature Range Modifier Day Schedule Name
  ASHRAETau,                              !- Solar Model Indicator
  ,                                       !- Beam Solar Day Schedule Name
  ,                                       !- Diffuse Solar Day Schedule Name
  0.532,                                  !- ASHRAE Clear Sky Optical Depth for Beam Irradiance {dimensionless}
  1.821,                                  !- ASHRAE Clear Sky Optical Depth for Diffuse Irradiance {dimensionless}
  ,                                       !- Daily Wet-Bulb Temperature Range {deltaC}
  ,                                       !- Maximum Number Warmup Days
  FullResetAtBeginEnvironment;            !- Begin Environment Reset Mode

OS:SizingPeriod:DesignDay,
  {4d91f5ae-44e6-40d8-aa44-05227dd323ab}, !- Handle
  New York Laguardia Arpt Ann Clg .4% Condns Enth=>MDB, !- Name
  30.8,                                   !- Maximum Dry-Bulb Temperature {C}
  7.7,                                    !- Daily Dry-Bulb Temperature Range {deltaC}
  101289,                                 !- Barometric Pressure {Pa}
  5.6,                                    !- Wind Speed {m/s}
  270,                                    !- Wind Direction {deg}
  ,                                       !- Sky Clearness
  No,                                     !- Rain Indicator
  No,                                     !- Snow Indicator
  21,                                     !- Day of Month
  7,                                      !- Month
  SummerDesignDay,                        !- Day Type
  No,                                     !- Daylight Saving Time Indicator
  Enthalpy,                               !- Humidity Condition Type
  ,                                       !- Humidity Condition Day Schedule Name
  23,                                     !- Wetbulb or DewPoint at Maximum Dry-Bulb {C}
  ,                                       !- Humidity Ratio at Maximum Dry-Bulb {kgWater/kgDryAir}
  76200,                                  !- Enthalpy at Maximum Dry-Bulb {J/kg}
  DefaultMultipliers,                     !- Dry-Bulb Temperature Range Modifier Type
  ,                                       !- Dry-Bulb Temperature Range Modifier Day Schedule Name
  ASHRAETau,                              !- Solar Model Indicator
  ,                                       !- Beam Solar Day Schedule Name
  ,                                       !- Diffuse Solar Day Schedule Name
  0.532,                                  !- ASHRAE Clear Sky Optical Depth for Beam Irradiance {dimensionless}
  1.821,                                  !- ASHRAE Clear Sky Optical Depth for Diffuse Irradiance {dimensionless}
  ,                                       !- Daily Wet-Bulb Temperature Range {deltaC}
  ,                                       !- Maximum Number Warmup Days
  FullResetAtBeginEnvironment;            !- Begin Environment Reset Mode

OS:SizingPeriod:DesignDay,
  {0e5fd14b-fa74-41d6-9fea-47627fbd18c5}, !- Handle
  New York Laguardia Arpt Ann Clg .4% Condns WB=>MDB, !- Name
  30.7,                                   !- Maximum Dry-Bulb Temperature {C}
  7.7,                                    !- Daily Dry-Bulb Temperature Range {deltaC}
  101289,                                 !- Barometric Pressure {Pa}
  5.6,                                    !- Wind Speed {m/s}
  270,                                    !- Wind Direction {deg}
  ,                                       !- Sky Clearness
  No,                                     !- Rain Indicator
  No,                                     !- Snow Indicator
  21,                                     !- Day of Month
  7,                                      !- Month
  SummerDesignDay,                        !- Day Type
  No,                                     !- Daylight Saving Time Indicator
  Wetbulb,                                !- Humidity Condition Type
  ,                                       !- Humidity Condition Day Schedule Name
  25.1,                                   !- Wetbulb or DewPoint at Maximum Dry-Bulb {C}
  ,                                       !- Humidity Ratio at Maximum Dry-Bulb {kgWater/kgDryAir}
  ,                                       !- Enthalpy at Maximum Dry-Bulb {J/kg}
  DefaultMultipliers,                     !- Dry-Bulb Temperature Range Modifier Type
  ,                                       !- Dry-Bulb Temperature Range Modifier Day Schedule Name
  ASHRAETau,                              !- Solar Model Indicator
  ,                                       !- Beam Solar Day Schedule Name
  ,                                       !- Diffuse Solar Day Schedule Name
  0.532,                                  !- ASHRAE Clear Sky Optical Depth for Beam Irradiance {dimensionless}
  1.821,                                  !- ASHRAE Clear Sky Optical Depth for Diffuse Irradiance {dimensionless}
  ,                                       !- Daily Wet-Bulb Temperature Range {deltaC}
  ,                                       !- Maximum Number Warmup Days
  FullResetAtBeginEnvironment;            !- Begin Environment Reset Mode

OS:SizingPeriod:DesignDay,
  {95212717-97f6-43c1-8793-9d02f271eff8}, !- Handle
  New York Laguardia Arpt Ann Htg 99.6% Condns DB, !- Name
  -10.8,                                  !- Maximum Dry-Bulb Temperature {C}
  0,                                      !- Daily Dry-Bulb Temperature Range {deltaC}
  101289,                                 !- Barometric Pressure {Pa}
  7.5,                                    !- Wind Speed {m/s}
  320,                                    !- Wind Direction {deg}
  0,                                      !- Sky Clearness
  No,                                     !- Rain Indicator
  No,                                     !- Snow Indicator
  21,                                     !- Day of Month
  1,                                      !- Month
  WinterDesignDay,                        !- Day Type
  No,                                     !- Daylight Saving Time Indicator
  Wetbulb,                                !- Humidity Condition Type
  ,                                       !- Humidity Condition Day Schedule Name
  -10.8,                                  !- Wetbulb or DewPoint at Maximum Dry-Bulb {C}
  ,                                       !- Humidity Ratio at Maximum Dry-Bulb {kgWater/kgDryAir}
  ,                                       !- Enthalpy at Maximum Dry-Bulb {J/kg}
  DefaultMultipliers,                     !- Dry-Bulb Temperature Range Modifier Type
  ,                                       !- Dry-Bulb Temperature Range Modifier Day Schedule Name
  ASHRAEClearSky,                         !- Solar Model Indicator
  ,                                       !- Beam Solar Day Schedule Name
  ,                                       !- Diffuse Solar Day Schedule Name
  ,                                       !- ASHRAE Clear Sky Optical Depth for Beam Irradiance {dimensionless}
  ,                                       !- ASHRAE Clear Sky Optical Depth for Diffuse Irradiance {dimensionless}
  ,                                       !- Daily Wet-Bulb Temperature Range {deltaC}
  ,                                       !- Maximum Number Warmup Days
  FullResetAtBeginEnvironment;            !- Begin Environment Reset Mode

OS:SizingPeriod:DesignDay,
  {58a32d4e-1f0c-44a8-8d37-854099f518bf}, !- Handle
  New York Laguardia Arpt Ann Htg Wind 99.6% Condns WS=>MCDB, !- Name
  0,                                      !- Maximum Dry-Bulb Temperature {C}
  0,                                      !- Daily Dry-Bulb Temperature Range {deltaC}
  101289,                                 !- Barometric Pressure {Pa}
  14.4,                                   !- Wind Speed {m/s}
  320,                                    !- Wind Direction {deg}
  0,                                      !- Sky Clearness
  No,                                     !- Rain Indicator
  No,                                     !- Snow Indicator
  21,                                     !- Day of Month
  1,                                      !- Month
  WinterDesignDay,                        !- Day Type
  No,                                     !- Daylight Saving Time Indicator
  Wetbulb,                                !- Humidity Condition Type
  ,                                       !- Humidity Condition Day Schedule Name
  0,                                      !- Wetbulb or DewPoint at Maximum Dry-Bulb {C}
  ,                                       !- Humidity Ratio at Maximum Dry-Bulb {kgWater/kgDryAir}
  ,                                       !- Enthalpy at Maximum Dry-Bulb {J/kg}
  DefaultMultipliers,                     !- Dry-Bulb Temperature Range Modifier Type
  ,                                       !- Dry-Bulb Temperature Range Modifier Day Schedule Name
  ASHRAEClearSky,                         !- Solar Model Indicator
  ,                                       !- Beam Solar Day Schedule Name
  ,                                       !- Diffuse Solar Day Schedule Name
  ,                                       !- ASHRAE Clear Sky Optical Depth for Beam Irradiance {dimensionless}
  ,                                       !- ASHRAE Clear Sky Optical Depth for Diffuse Irradiance {dimensionless}
  ,                                       !- Daily Wet-Bulb Temperature Range {deltaC}
  ,                                       !- Maximum Number Warmup Days
  FullResetAtBeginEnvironment;            !- Begin Environment Reset Mode

OS:SizingPeriod:DesignDay,
  {2d28ffb3-bfc5-4e2c-984e-5be29309140e}, !- Handle
  New York Laguardia Arpt Ann Hum_n 99.6% Condns DP=>MCDB, !- Name
  -9.3,                                   !- Maximum Dry-Bulb Temperature {C}
  0,                                      !- Daily Dry-Bulb Temperature Range {deltaC}
  101289,                                 !- Barometric Pressure {Pa}
  7.5,                                    !- Wind Speed {m/s}
  320,                                    !- Wind Direction {deg}
  0,                                      !- Sky Clearness
  No,                                     !- Rain Indicator
  No,                                     !- Snow Indicator
  21,                                     !- Day of Month
  1,                                      !- Month
  WinterDesignDay,                        !- Day Type
  No,                                     !- Daylight Saving Time Indicator
  Dewpoint,                               !- Humidity Condition Type
  ,                                       !- Humidity Condition Day Schedule Name
  -20.1,                                  !- Wetbulb or DewPoint at Maximum Dry-Bulb {C}
  ,                                       !- Humidity Ratio at Maximum Dry-Bulb {kgWater/kgDryAir}
  ,                                       !- Enthalpy at Maximum Dry-Bulb {J/kg}
  DefaultMultipliers,                     !- Dry-Bulb Temperature Range Modifier Type
  ,                                       !- Dry-Bulb Temperature Range Modifier Day Schedule Name
  ASHRAEClearSky,                         !- Solar Model Indicator
  ,                                       !- Beam Solar Day Schedule Name
  ,                                       !- Diffuse Solar Day Schedule Name
  ,                                       !- ASHRAE Clear Sky Optical Depth for Beam Irradiance {dimensionless}
  ,                                       !- ASHRAE Clear Sky Optical Depth for Diffuse Irradiance {dimensionless}
  ,                                       !- Daily Wet-Bulb Temperature Range {deltaC}
  ,                                       !- Maximum Number Warmup Days
  FullResetAtBeginEnvironment;            !- Begin Environment Reset Mode

OS:RunPeriod,
  {86bc64e0-0a91-484b-8a62-3a5f2061b8d1}, !- Handle
  Run Period 1,                           !- Name
  1,                                      !- Begin Month
  1,                                      !- Begin Day of Month
  12,                                     !- End Month
  31,                                     !- End Day of Month
  No,                                     !- Use Weather File Holidays and Special Days
  No,                                     !- Use Weather File Daylight Saving Period
  No,                                     !- Apply Weekend Holiday Rule
  Yes,                                    !- Use Weather File Rain Indicators
  Yes,                                    !- Use Weather File Snow Indicators
  ;                                       !- Number of Times Runperiod to be Repeated

OS:YearDescription,
  {e8ac78dc-2d6d-42e4-ac0a-9e5d3efc54f7}, !- Handle
  ,                                       !- Calendar Year
  Sunday,                                 !- Day of Week for Start Day
  ;                                       !- Is Leap Year

OS:ScheduleTypeLimits,
  {95591637-400d-47c7-b656-3dc8be4ece4b}, !- Handle
  Schedule Type Limits 1,                 !- Name
  0,                                      !- Lower Limit Value
  1,                                      !- Upper Limit Value
  CONTINUOUS;                             !- Numeric Type

OS:ScheduleTypeLimits,
  {dfb81c7c-947d-440e-a2b2-3c55c31ea3b1}, !- Handle
  Schedule Type Limits 2,                 !- Name
  0,                                      !- Lower Limit Value
  ,                                       !- Upper Limit Value
  Continuous,                             !- Numeric Type
  activitylevel;                          !- Unit Type

OS:ScheduleTypeLimits,
  {0ed9723e-03db-4a2c-a4c9-7532cf4406e7}, !- Handle
  Test_Office_0 Thermostat Schedule Type Limits, !- Name
  0,                                      !- Lower Limit Value
  4,                                      !- Upper Limit Value
  DISCRETE;                               !- Numeric Type

OS:ScheduleTypeLimits,
  {651adbc8-05e0-43e7-bfc6-428681021d23}, !- Handle
  Schedule Type Limits 3,                 !- Name
  ,                                       !- Lower Limit Value
  ,                                       !- Upper Limit Value
  Continuous,                             !- Numeric Type
  temperature;                            !- Unit Type

OS:ScheduleTypeLimits,
  {6a0c121a-9104-400e-9a14-c3d17c72e336}, !- Handle
  Schedule Type Limits 4,                 !- Name
  ,                                       !- Lower Limit Value
  ,                                       !- Upper Limit Value
  Continuous,                             !- Numeric Type
  temperature;                            !- Unit Type

OS:ScheduleTypeLimits,
  {d3a23a30-8409-4813-a93c-b1c584b59e62}, !- Handle
  OnOff,                                  !- Name
  0,                                      !- Lower Limit Value
  1,                                      !- Upper Limit Value
  Discrete,                               !- Numeric Type
  availability;                           !- Unit Type

OS:ScheduleTypeLimits,
  {8a6633d7-cbef-4615-a2bb-7f9a0bde4fa2}, !- Handle
  OnOff hvac_library,                     !- Name
  0,                                      !- Lower Limit Value
  1,                                      !- Upper Limit Value
  Discrete,                               !- Numeric Type
  availability;                           !- Unit Type

OS:ScheduleTypeLimits,
  {665afd97-645f-4c98-8572-5b995cd6d646}, !- Handle
  Temperature,                            !- Name
  ,                                       !- Lower Limit Value
  ,                                       !- Upper Limit Value
  Continuous,                             !- Numeric Type
  temperature;                            !- Unit Type

OS:Schedule:Day,
  {4638a710-b55f-4756-b71b-cff0ac46d86d}, !- Handle
  Office Bldg Light Default Schedule,     !- Name
  {95591637-400d-47c7-b656-3dc8be4ece4b}, !- Schedule Type Limits Name
  No,                                     !- Interpolate to Timestep
  5,                                      !- Hour 1
  0,                                      !- Minute 1
  0.05,                                   !- Value Until Time 1
  7,                                      !- Hour 2
  0,                                      !- Minute 2
  0.1,                                    !- Value Until Time 2
  8,                                      !- Hour 3
  0,                                      !- Minute 3
  0.3,                                    !- Value Until Time 3
  17,                                     !- Hour 4
  0,                                      !- Minute 4
  0.9,                                    !- Value Until Time 4
  18,                                     !- Hour 5
  0,                                      !- Minute 5
  0.7,                                    !- Value Until Time 5
  20,                                     !- Hour 6
  0,                                      !- Minute 6
  0.5,                                    !- Value Until Time 6
  22,                                     !- Hour 7
  0,                                      !- Minute 7
  0.3,                                    !- Value Until Time 7
  23,                                     !- Hour 8
  0,                                      !- Minute 8
  0.1,                                    !- Value Until Time 8
  24,                                     !- Hour 9
  0,                                      !- Minute 9
  0.05;                                   !- Value Until Time 9

OS:Schedule:Day,
  {d2912bda-bb43-443e-9005-fa5e6f154b2c}, !- Handle
  Office Bldg Light Rule 2 Day Schedule,  !- Name
  {95591637-400d-47c7-b656-3dc8be4ece4b}, !- Schedule Type Limits Name
  No,                                     !- Interpolate to Timestep
  6,                                      !- Hour 1
  0,                                      !- Minute 1
  0.05,                                   !- Value Until Time 1
  8,                                      !- Hour 2
  0,                                      !- Minute 2
  0.1,                                    !- Value Until Time 2
  14,                                     !- Hour 3
  0,                                      !- Minute 3
  0.5,                                    !- Value Until Time 3
  17,                                     !- Hour 4
  0,                                      !- Minute 4
  0.15,                                   !- Value Until Time 4
  24,                                     !- Hour 5
  0,                                      !- Minute 5
  0.05;                                   !- Value Until Time 5

OS:Schedule:Day,
  {18fb8dde-098d-4a33-9e4c-02220bfa77c2}, !- Handle
  Office Bldg Light Summer Design Day,    !- Name
  {95591637-400d-47c7-b656-3dc8be4ece4b}, !- Schedule Type Limits Name
  No,                                     !- Interpolate to Timestep
  24,                                     !- Hour 1
  0,                                      !- Minute 1
  1;                                      !- Value Until Time 1

OS:Schedule:Day,
  {a941c1ca-14ae-4058-a137-721ecafa0ec9}, !- Handle
  Office Bldg Light Winter Design Day,    !- Name
  {95591637-400d-47c7-b656-3dc8be4ece4b}, !- Schedule Type Limits Name
  No,                                     !- Interpolate to Timestep
  24,                                     !- Hour 1
  0,                                      !- Minute 1
  0;                                      !- Value Until Time 1

OS:Schedule:Day,
  {c95211c4-23a7-44cb-88d0-ba43493002e7}, !- Handle
  Office Bldg Light Rule 1 Day Schedule,  !- Name
  {95591637-400d-47c7-b656-3dc8be4ece4b}, !- Schedule Type Limits Name
  No,                                     !- Interpolate to Timestep
  24,                                     !- Hour 1
  0,                                      !- Minute 1
  0.05;                                   !- Value Until Time 1

OS:Schedule:Day,
  {41e5d29a-84d9-4893-b14c-1844e1c5f963}, !- Handle
  Medium Office Bldg Occ Default Schedule, !- Name
  {95591637-400d-47c7-b656-3dc8be4ece4b}, !- Schedule Type Limits Name
  No,                                     !- Interpolate to Timestep
  6,                                      !- Hour 1
  0,                                      !- Minute 1
  0,                                      !- Value Until Time 1
  7,                                      !- Hour 2
  0,                                      !- Minute 2
  0.1,                                    !- Value Until Time 2
  8,                                      !- Hour 3
  0,                                      !- Minute 3
  0.2,                                    !- Value Until Time 3
  12,                                     !- Hour 4
  0,                                      !- Minute 4
  0.95,                                   !- Value Until Time 4
  13,                                     !- Hour 5
  0,                                      !- Minute 5
  0.5,                                    !- Value Until Time 5
  17,                                     !- Hour 6
  0,                                      !- Minute 6
  0.95,                                   !- Value Until Time 6
  18,                                     !- Hour 7
  0,                                      !- Minute 7
  0.7,                                    !- Value Until Time 7
  20,                                     !- Hour 8
  0,                                      !- Minute 8
  0.4,                                    !- Value Until Time 8
  22,                                     !- Hour 9
  0,                                      !- Minute 9
  0.1,                                    !- Value Until Time 9
  24,                                     !- Hour 10
  0,                                      !- Minute 10
  0.05;                                   !- Value Until Time 10

OS:Construction,
  {9ec1078e-b159-49e8-b15c-3715d5609e10}, !- Handle
  Exterior Wall,                          !- Name
  {378a3f31-c508-4ac3-b7dc-a96f0b6e3c1f}, !- Surface Rendering Name
  {1538b7f2-83a9-4593-986c-2d292606265b}, !- Layer 1
  {1fae1f98-f20c-4623-be75-02313740585b}, !- Layer 2
  {aa956e4a-4421-427f-9b08-331eeb9b09cd}, !- Layer 3
  {d0ea4d98-4012-4004-a1cc-1514014efdc6}, !- Layer 4
  {40d3d107-5071-40fc-87f7-6c5fbe4cf247}; !- Layer 5

OS:Material,
  {1538b7f2-83a9-4593-986c-2d292606265b}, !- Handle
  M01 100mm brick,                        !- Name
  MediumRough,                            !- Roughness
  0.1016,                                 !- Thickness {m}
  0.89,                                   !- Conductivity {W/m-K}
  1920,                                   !- Density {kg/m3}
  790,                                    !- Specific Heat {J/kg-K}
  0.9,                                    !- Thermal Absorptance
  0.7,                                    !- Solar Absorptance
  0.7;                                    !- Visible Absorptance

OS:Material,
  {1fae1f98-f20c-4623-be75-02313740585b}, !- Handle
  M15 200mm heavyweight concrete,         !- Name